
OS:Version,
  {83c3f3aa-e682-4c07-bce1-b392f4959710}, !- Handle
  3.7.0;                                  !- Version Identifier

OS:Building,
  {2739bdb9-d00e-45a1-b1c8-794042fd012b}, !- Handle
  Simulation_0910_WMB&#13&#10,            !- Name
  ,                                       !- Building Sector Type
  0,                                      !- North Axis {deg}
  ,                                       !- Nominal Floor to Floor Height {m}
  ,                                       !- Space Type Name
  {a4f7be2d-1c7f-4fdd-9aef-43d3e5748266}, !- Default Construction Set Name
  ,                                       !- Default Schedule Set Name
  ,                                       !- Standards Number of Stories
  ,                                       !- Standards Number of Above Ground Stories
  ,                                       !- Standards Template
  MediumOffice;                           !- Standards Building Type

OS:Facility,
  {0ab64d17-5efb-4156-b0db-a34270c2bd83}; !- Handle

OS:Site,
  {5e927e08-07f5-4f19-9054-b30efb2bcaa7}, !- Handle
  Site 1,                                 !- Name
  ,                                       !- Latitude {deg}
  ,                                       !- Longitude {deg}
  ,                                       !- Time Zone {hr}
  ,                                       !- Elevation {m}
  City;                                   !- Terrain

OS:SimulationControl,
  {48497700-15e4-4f96-9f6d-056771bc38a0}, !- Handle
  Yes,                                    !- Do Zone Sizing Calculation
  Yes,                                    !- Do System Sizing Calculation
  Yes,                                    !- Do Plant Sizing Calculation
  No,                                     !- Run Simulation for Sizing Periods
  Yes,                                    !- Run Simulation for Weather File Run Periods
  ,                                       !- Loads Convergence Tolerance Value {W}
  ,                                       !- Temperature Convergence Tolerance Value {deltaC}
  FullExteriorWithReflections;            !- Solar Distribution

OS:Sizing:Parameters,
  {92923e7f-5170-400d-a0c4-242d596d931c}, !- Handle
  1.25,                                   !- Heating Sizing Factor
  1.15;                                   !- Cooling Sizing Factor

OS:Timestep,
  {d922bdb3-65fb-4545-af31-6b8a183013be}, !- Handle
  6;                                      !- Number of Timesteps per Hour

OS:ShadowCalculation,
  {8a9e81ec-f4a6-4db7-9de7-01a46a20c6b9}, !- Handle
  PolygonClipping,                        !- Shading Calculation Method
  Periodic,                               !- Shading Calculation Update Frequency Method
  30,                                     !- Shading Calculation Update Frequency
  15000,                                  !- Maximum Figures in Shadow Overlap Calculations
  ,                                       !- Polygon Clipping Algorithm
  512,                                    !- Pixel Counting Resolution
  ,                                       !- Sky Diffuse Modeling Algorithm
  No,                                     !- Output External Shading Calculation Results
  No,                                     !- Disable Self-Shading Within Shading Zone Groups
  No;                                     !- Disable Self-Shading From Shading Zone Groups to Other Zones

OS:HeatBalanceAlgorithm,
  {2ce922e1-8635-46c8-9813-d52c0db222fc}, !- Handle
  ConductionTransferFunction,             !- Algorithm
  200;                                    !- Surface Temperature Upper Limit {C}

OS:RunPeriod,
  {842f1735-3290-4076-a91d-721b1d171bab}, !- Handle
  Run Period 1,                           !- Name
  1,                                      !- Begin Month
  1,                                      !- Begin Day of Month
  1,                                      !- End Month
  1,                                      !- End Day of Month
  ,                                       !- Use Weather File Holidays and Special Days
  ,                                       !- Use Weather File Daylight Saving Period
  ,                                       !- Apply Weekend Holiday Rule
  ,                                       !- Use Weather File Rain Indicators
  ,                                       !- Use Weather File Snow Indicators
  ;                                       !- Number of Times Runperiod to be Repeated

OS:LifeCycleCost:Parameters,
  {c41ebedd-dd6f-4017-a96d-33c716d9ba0d}, !- Handle
  ,                                       !- Analysis Type
  ,                                       !- Discounting Convention
  ,                                       !- Inflation Approach
  ,                                       !- Real Discount Rate
  ,                                       !- Nominal Discount Rate
  ,                                       !- Inflation
  ,                                       !- Base Date Month
  ,                                       !- Base Date Year
  ,                                       !- Service Date Month
  ,                                       !- Service Date Year
  ;                                       !- Length of Study Period in Years

OS:WeatherFile,
  {3a62aadd-37d7-413c-bae7-95dc92ecfaeb}, !- Handle
  SHENZHEN,                               !- City
  -,                                      !- State Province Region
  CHN,                                    !- Country
  SWERA,                                  !- Data Source
  594930,                                 !- WMO Number
  22.55,                                  !- Latitude {deg}
  114.1,                                  !- Longitude {deg}
  8,                                      !- Time Zone {hr}
  18,                                     !- Elevation {m}
  C:/Users/Lala/AppData/Roaming/ladybug_tools/weather/CHN_Guangdong.Shenzhen.594930_SWERA/CHN_Guangdong.Shenzhen.594930_SWERA.epw, !- Url
  46D93030,                               !- Checksum
  ,                                       !- Start Date Actual Year
  Sunday;                                 !- Start Day of Week

OS:SizingPeriod:DesignDay,
  {5a84a024-20be-49f7-aea1-89855e2dadbc}, !- Handle
  SHENZHEN Ann Htg 99.6% Condns DB,       !- Name
  6.9,                                    !- Maximum Dry-Bulb Temperature {C}
  0,                                      !- Daily Dry-Bulb Temperature Range {deltaC}
  101109,                                 !- Barometric Pressure {Pa}
  4.5,                                    !- Wind Speed {m/s}
  20,                                     !- Wind Direction {deg}
  0,                                      !- Sky Clearness
  ,                                       !- Rain Indicator
  ,                                       !- Snow Indicator
  21,                                     !- Day of Month
  1,                                      !- Month
  WinterDesignDay,                        !- Day Type
  ,                                       !- Daylight Saving Time Indicator
  Wetbulb,                                !- Humidity Condition Type
  ,                                       !- Humidity Condition Day Schedule Name
  6.9,                                    !- Wetbulb or DewPoint at Maximum Dry-Bulb {C}
  ,                                       !- Humidity Ratio at Maximum Dry-Bulb {kgWater/kgDryAir}
  ,                                       !- Enthalpy at Maximum Dry-Bulb {J/kg}
  ,                                       !- Dry-Bulb Temperature Range Modifier Type
  ,                                       !- Dry-Bulb Temperature Range Modifier Day Schedule Name
  ASHRAEClearSky;                         !- Solar Model Indicator

OS:SizingPeriod:DesignDay,
  {fbcb64e5-34ae-43e2-9f1e-d49de8ad540c}, !- Handle
  SHENZHEN Ann Hum_n 99.6% Condns DP=>MCDB, !- Name
  12.3,                                   !- Maximum Dry-Bulb Temperature {C}
  0,                                      !- Daily Dry-Bulb Temperature Range {deltaC}
  101109,                                 !- Barometric Pressure {Pa}
  4.5,                                    !- Wind Speed {m/s}
  20,                                     !- Wind Direction {deg}
  0,                                      !- Sky Clearness
  ,                                       !- Rain Indicator
  ,                                       !- Snow Indicator
  21,                                     !- Day of Month
  1,                                      !- Month
  WinterDesignDay,                        !- Day Type
  ,                                       !- Daylight Saving Time Indicator
  Dewpoint,                               !- Humidity Condition Type
  ,                                       !- Humidity Condition Day Schedule Name
  -5.1,                                   !- Wetbulb or DewPoint at Maximum Dry-Bulb {C}
  ,                                       !- Humidity Ratio at Maximum Dry-Bulb {kgWater/kgDryAir}
  ,                                       !- Enthalpy at Maximum Dry-Bulb {J/kg}
  ,                                       !- Dry-Bulb Temperature Range Modifier Type
  ,                                       !- Dry-Bulb Temperature Range Modifier Day Schedule Name
  ASHRAEClearSky;                         !- Solar Model Indicator

OS:SizingPeriod:DesignDay,
  {5716cf6a-ed0a-4e97-afa4-993c390c4516}, !- Handle
  SHENZHEN Ann Htg Wind 99.6% Condns WS=>MCDB, !- Name
  11.9,                                   !- Maximum Dry-Bulb Temperature {C}
  0,                                      !- Daily Dry-Bulb Temperature Range {deltaC}
  101109,                                 !- Barometric Pressure {Pa}
  8.4,                                    !- Wind Speed {m/s}
  20,                                     !- Wind Direction {deg}
  0,                                      !- Sky Clearness
  ,                                       !- Rain Indicator
  ,                                       !- Snow Indicator
  21,                                     !- Day of Month
  1,                                      !- Month
  WinterDesignDay,                        !- Day Type
  ,                                       !- Daylight Saving Time Indicator
  Wetbulb,                                !- Humidity Condition Type
  ,                                       !- Humidity Condition Day Schedule Name
  11.9,                                   !- Wetbulb or DewPoint at Maximum Dry-Bulb {C}
  ,                                       !- Humidity Ratio at Maximum Dry-Bulb {kgWater/kgDryAir}
  ,                                       !- Enthalpy at Maximum Dry-Bulb {J/kg}
  ,                                       !- Dry-Bulb Temperature Range Modifier Type
  ,                                       !- Dry-Bulb Temperature Range Modifier Day Schedule Name
  ASHRAEClearSky;                         !- Solar Model Indicator

OS:SizingPeriod:DesignDay,
  {7bd92a01-7043-44a3-904a-98af4510584d}, !- Handle
  SHENZHEN Ann Clg .4% Condns DB=>MWB,    !- Name
  33.8,                                   !- Maximum Dry-Bulb Temperature {C}
  5.3,                                    !- Daily Dry-Bulb Temperature Range {deltaC}
  101109,                                 !- Barometric Pressure {Pa}
  3.4,                                    !- Wind Speed {m/s}
  220,                                    !- Wind Direction {deg}
  ,                                       !- Sky Clearness
  ,                                       !- Rain Indicator
  ,                                       !- Snow Indicator
  21,                                     !- Day of Month
  7,                                      !- Month
  SummerDesignDay,                        !- Day Type
  ,                                       !- Daylight Saving Time Indicator
  Wetbulb,                                !- Humidity Condition Type
  ,                                       !- Humidity Condition Day Schedule Name
  26.5,                                   !- Wetbulb or DewPoint at Maximum Dry-Bulb {C}
  ,                                       !- Humidity Ratio at Maximum Dry-Bulb {kgWater/kgDryAir}
  ,                                       !- Enthalpy at Maximum Dry-Bulb {J/kg}
  ,                                       !- Dry-Bulb Temperature Range Modifier Type
  ,                                       !- Dry-Bulb Temperature Range Modifier Day Schedule Name
  ASHRAETau,                              !- Solar Model Indicator
  ,                                       !- Beam Solar Day Schedule Name
  ,                                       !- Diffuse Solar Day Schedule Name
  0.685,                                  !- ASHRAE Clear Sky Optical Depth for Beam Irradiance {dimensionless}
  1.554;                                  !- ASHRAE Clear Sky Optical Depth for Diffuse Irradiance {dimensionless}

OS:SizingPeriod:DesignDay,
  {2da07b7a-d4f5-46bc-8767-c94bec907430}, !- Handle
  SHENZHEN Ann Clg .4% Condns WB=>MDB,    !- Name
  31,                                     !- Maximum Dry-Bulb Temperature {C}
  5.3,                                    !- Daily Dry-Bulb Temperature Range {deltaC}
  101109,                                 !- Barometric Pressure {Pa}
  3.4,                                    !- Wind Speed {m/s}
  220,                                    !- Wind Direction {deg}
  ,                                       !- Sky Clearness
  ,                                       !- Rain Indicator
  ,                                       !- Snow Indicator
  21,                                     !- Day of Month
  7,                                      !- Month
  SummerDesignDay,                        !- Day Type
  ,                                       !- Daylight Saving Time Indicator
  Wetbulb,                                !- Humidity Condition Type
  ,                                       !- Humidity Condition Day Schedule Name
  28.8,                                   !- Wetbulb or DewPoint at Maximum Dry-Bulb {C}
  ,                                       !- Humidity Ratio at Maximum Dry-Bulb {kgWater/kgDryAir}
  ,                                       !- Enthalpy at Maximum Dry-Bulb {J/kg}
  ,                                       !- Dry-Bulb Temperature Range Modifier Type
  ,                                       !- Dry-Bulb Temperature Range Modifier Day Schedule Name
  ASHRAETau,                              !- Solar Model Indicator
  ,                                       !- Beam Solar Day Schedule Name
  ,                                       !- Diffuse Solar Day Schedule Name
  0.685,                                  !- ASHRAE Clear Sky Optical Depth for Beam Irradiance {dimensionless}
  1.554;                                  !- ASHRAE Clear Sky Optical Depth for Diffuse Irradiance {dimensionless}

OS:SizingPeriod:DesignDay,
  {573ae4bd-0f87-4c3c-922f-f8d89fb42278}, !- Handle
  SHENZHEN Ann Clg .4% Condns DP=>MDB,    !- Name
  30.2,                                   !- Maximum Dry-Bulb Temperature {C}
  5.3,                                    !- Daily Dry-Bulb Temperature Range {deltaC}
  101109,                                 !- Barometric Pressure {Pa}
  3.4,                                    !- Wind Speed {m/s}
  220,                                    !- Wind Direction {deg}
  ,                                       !- Sky Clearness
  ,                                       !- Rain Indicator
  ,                                       !- Snow Indicator
  21,                                     !- Day of Month
  7,                                      !- Month
  SummerDesignDay,                        !- Day Type
  ,                                       !- Daylight Saving Time Indicator
  Dewpoint,                               !- Humidity Condition Type
  ,                                       !- Humidity Condition Day Schedule Name
  28.2,                                   !- Wetbulb or DewPoint at Maximum Dry-Bulb {C}
  ,                                       !- Humidity Ratio at Maximum Dry-Bulb {kgWater/kgDryAir}
  ,                                       !- Enthalpy at Maximum Dry-Bulb {J/kg}
  ,                                       !- Dry-Bulb Temperature Range Modifier Type
  ,                                       !- Dry-Bulb Temperature Range Modifier Day Schedule Name
  ASHRAETau,                              !- Solar Model Indicator
  ,                                       !- Beam Solar Day Schedule Name
  ,                                       !- Diffuse Solar Day Schedule Name
  0.685,                                  !- ASHRAE Clear Sky Optical Depth for Beam Irradiance {dimensionless}
  1.554;                                  !- ASHRAE Clear Sky Optical Depth for Diffuse Irradiance {dimensionless}

OS:SizingPeriod:DesignDay,
  {72214a7b-e16e-4532-bb61-e3533ca732fb}, !- Handle
  SHENZHEN Ann Clg .4% Condns Enth=>MDB,  !- Name
  31.3,                                   !- Maximum Dry-Bulb Temperature {C}
  5.3,                                    !- Daily Dry-Bulb Temperature Range {deltaC}
  101109,                                 !- Barometric Pressure {Pa}
  3.4,                                    !- Wind Speed {m/s}
  220,                                    !- Wind Direction {deg}
  ,                                       !- Sky Clearness
  ,                                       !- Rain Indicator
  ,                                       !- Snow Indicator
  21,                                     !- Day of Month
  7,                                      !- Month
  SummerDesignDay,                        !- Day Type
  ,                                       !- Daylight Saving Time Indicator
  Enthalpy,                               !- Humidity Condition Type
  ,                                       !- Humidity Condition Day Schedule Name
  23,                                     !- Wetbulb or DewPoint at Maximum Dry-Bulb {C}
  ,                                       !- Humidity Ratio at Maximum Dry-Bulb {kgWater/kgDryAir}
  94500,                                  !- Enthalpy at Maximum Dry-Bulb {J/kg}
  ,                                       !- Dry-Bulb Temperature Range Modifier Type
  ,                                       !- Dry-Bulb Temperature Range Modifier Day Schedule Name
  ASHRAETau,                              !- Solar Model Indicator
  ,                                       !- Beam Solar Day Schedule Name
  ,                                       !- Diffuse Solar Day Schedule Name
  0.685,                                  !- ASHRAE Clear Sky Optical Depth for Beam Irradiance {dimensionless}
  1.554;                                  !- ASHRAE Clear Sky Optical Depth for Diffuse Irradiance {dimensionless}

OS:Site:WaterMainsTemperature,
  {fa523d35-80bc-4484-aaf7-ed4cefe0f24c}, !- Handle
  CorrelationFromWeatherFile;             !- Calculation Method

OS:ClimateZones,
  {1fca3cb9-47ad-4baf-a745-07e9735530a8}, !- Handle
  ASHRAE,                                 !- Climate Zone Institution Name 1
  ANSI/ASHRAE Standard 169,               !- Climate Zone Document Name 1
  2006,                                   !- Climate Zone Document Year 1
  2A;                                     !- Climate Zone Value 1

OS:OutputControl:ReportingTolerances,
  {ae2f1cc7-57ef-4247-927b-6722a3788cd4}, !- Handle
  1.11,                                   !- Tolerance for Time Heating Setpoint Not Met {deltaC}
  1.11;                                   !- Tolerance for Time Cooling Setpoint Not Met {deltaC}

OS:Output:Variable,
  {0aedaa95-ad34-41b0-aa1a-f47b968005a8}, !- Handle
  Output Variable 1,                      !- Name
  ,                                       !- Key Value
  Baseboard Electricity Energy,           !- Variable Name
  Hourly;                                 !- Reporting Frequency

OS:Output:Variable,
  {06765e6a-08ef-4775-9590-162c4c58a50c}, !- Handle
  Output Variable 2,                      !- Name
  ,                                       !- Key Value
  Boiler Electricity Energy,              !- Variable Name
  Hourly;                                 !- Reporting Frequency

OS:Output:Variable,
  {bef89e79-c97e-446d-8e04-9ddafceba2b6}, !- Handle
  Output Variable 3,                      !- Name
  ,                                       !- Key Value
  Boiler NaturalGas Energy,               !- Variable Name
  Hourly;                                 !- Reporting Frequency

OS:Output:Variable,
  {4102b9d1-38ab-49cb-a737-d41fe4b7d8dc}, !- Handle
  Output Variable 4,                      !- Name
  ,                                       !- Key Value
  Chiller Electricity Energy,             !- Variable Name
  Hourly;                                 !- Reporting Frequency

OS:Output:Variable,
  {ea911f0b-dcb8-4cf6-b2a7-ada964d9e852}, !- Handle
  Output Variable 5,                      !- Name
  ,                                       !- Key Value
  Chiller Heater System Cooling Electricity Energy, !- Variable Name
  Hourly;                                 !- Reporting Frequency

OS:Output:Variable,
  {f7694b20-14ff-48fc-8d08-99777961a4fa}, !- Handle
  Output Variable 6,                      !- Name
  ,                                       !- Key Value
  Chiller Heater System Heating Electricity Energy, !- Variable Name
  Hourly;                                 !- Reporting Frequency

OS:Output:Variable,
  {577a9a25-c58e-4614-a6f6-cd948ef91ca1}, !- Handle
  Output Variable 7,                      !- Name
  ,                                       !- Key Value
  Cooling Coil Electricity Energy,        !- Variable Name
  Hourly;                                 !- Reporting Frequency

OS:Output:Variable,
  {7df95b92-2947-41ff-b29a-c6a3f11ba547}, !- Handle
  Output Variable 8,                      !- Name
  ,                                       !- Key Value
  Cooling Coil Water Heating Electricity Energy, !- Variable Name
  Hourly;                                 !- Reporting Frequency

OS:Output:Variable,
  {b8212bc7-7fd9-48a5-b255-cc9eda619680}, !- Handle
  Output Variable 9,                      !- Name
  ,                                       !- Key Value
  Cooling Tower Fan Electricity Energy,   !- Variable Name
  Hourly;                                 !- Reporting Frequency

OS:Output:Variable,
  {1178db75-fa95-4dc2-b9c9-3b1288a8735f}, !- Handle
  Output Variable 10,                     !- Name
  ,                                       !- Key Value
  District Cooling Water Energy,          !- Variable Name
  Hourly;                                 !- Reporting Frequency

OS:Output:Variable,
  {27d70abc-58a0-479e-890b-bb1382f0648e}, !- Handle
  Output Variable 11,                     !- Name
  ,                                       !- Key Value
  District Heating Water Energy,          !- Variable Name
  Hourly;                                 !- Reporting Frequency

OS:Output:Variable,
  {b46fef88-47af-4345-80a9-4c69699278bc}, !- Handle
  Output Variable 12,                     !- Name
  ,                                       !- Key Value
  Evaporative Cooler Electricity Energy,  !- Variable Name
  Hourly;                                 !- Reporting Frequency

OS:Output:Variable,
  {ed837804-76ab-4f67-89a0-830ae807378c}, !- Handle
  Output Variable 13,                     !- Name
  ,                                       !- Key Value
  Fan Electricity Energy,                 !- Variable Name
  Hourly;                                 !- Reporting Frequency

OS:Output:Variable,
  {5363f77b-37fe-4e50-af0b-34f95a90ad88}, !- Handle
  Output Variable 14,                     !- Name
  ,                                       !- Key Value
  Heating Coil Electricity Energy,        !- Variable Name
  Hourly;                                 !- Reporting Frequency

OS:Output:Variable,
  {a4a37908-1510-4bf5-a6e5-d15f715f915d}, !- Handle
  Output Variable 15,                     !- Name
  ,                                       !- Key Value
  Heating Coil NaturalGas Energy,         !- Variable Name
  Hourly;                                 !- Reporting Frequency

OS:Output:Variable,
  {b805d5d8-1394-4423-a4f5-fe5dc7d65bea}, !- Handle
  Output Variable 16,                     !- Name
  ,                                       !- Key Value
  Heating Coil Total Heating Energy,      !- Variable Name
  Hourly;                                 !- Reporting Frequency

OS:Output:Variable,
  {3c0a0004-6e1c-4010-95bc-7568dfe5122f}, !- Handle
  Output Variable 17,                     !- Name
  ,                                       !- Key Value
  Hot_Water_Loop_Central_Air_Source_Heat_Pump Electricity Consumption, !- Variable Name
  Hourly;                                 !- Reporting Frequency

OS:Output:Variable,
  {e9f09b57-55fb-42d6-82c1-926cd32a4bfc}, !- Handle
  Output Variable 18,                     !- Name
  ,                                       !- Key Value
  Humidifier Electricity Energy,          !- Variable Name
  Hourly;                                 !- Reporting Frequency

OS:Output:Variable,
  {2cc244a1-546a-4e9c-b0eb-8331553fa635}, !- Handle
  Output Variable 19,                     !- Name
  ,                                       !- Key Value
  Pump Electricity Energy,                !- Variable Name
  Hourly;                                 !- Reporting Frequency

OS:Output:Variable,
  {3cafbcd1-0b24-49da-b86a-0d943eae670b}, !- Handle
  Output Variable 20,                     !- Name
  ,                                       !- Key Value
  VRF Heat Pump Cooling Electricity Energy, !- Variable Name
  Hourly;                                 !- Reporting Frequency

OS:Output:Variable,
  {7dbc0b56-41d9-42fb-a00c-9319953e2007}, !- Handle
  Output Variable 21,                     !- Name
  ,                                       !- Key Value
  VRF Heat Pump Crankcase Heater Electricity Energy, !- Variable Name
  Hourly;                                 !- Reporting Frequency

OS:Output:Variable,
  {cf80ed5d-396c-4b39-ab0f-b688364364ed}, !- Handle
  Output Variable 22,                     !- Name
  ,                                       !- Key Value
  VRF Heat Pump Defrost Electricity Energy, !- Variable Name
  Hourly;                                 !- Reporting Frequency

OS:Output:Variable,
  {3278bb20-8b25-4bd4-9a36-044ae20eb921}, !- Handle
  Output Variable 23,                     !- Name
  ,                                       !- Key Value
  VRF Heat Pump Heating Electricity Energy, !- Variable Name
  Hourly;                                 !- Reporting Frequency

OS:Output:Variable,
  {62ac00ef-cfcb-45d4-839e-e74152459ca0}, !- Handle
  Output Variable 24,                     !- Name
  ,                                       !- Key Value
  Water Heater Electricity Energy,        !- Variable Name
  Hourly;                                 !- Reporting Frequency

OS:Output:Variable,
  {f73b1783-858f-47f6-a45f-4185c3fddc13}, !- Handle
  Output Variable 25,                     !- Name
  ,                                       !- Key Value
  Water Heater NaturalGas Energy,         !- Variable Name
  Hourly;                                 !- Reporting Frequency

OS:Output:Variable,
  {1328c77a-7b37-4fab-895a-59a40dae688d}, !- Handle
  Output Variable 26,                     !- Name
  ,                                       !- Key Value
  Water Use Equipment Heating Energy,     !- Variable Name
  Hourly;                                 !- Reporting Frequency

OS:Output:Variable,
  {df10518d-29bc-4c52-a014-5bd15a5c7db2}, !- Handle
  Output Variable 27,                     !- Name
  ,                                       !- Key Value
  Zone Electric Equipment Electricity Energy, !- Variable Name
  Hourly;                                 !- Reporting Frequency

OS:Output:Variable,
  {8c7211ba-821e-4a79-80b1-afcd2b6b749b}, !- Handle
  Output Variable 28,                     !- Name
  ,                                       !- Key Value
  Zone Gas Equipment NaturalGas Energy,   !- Variable Name
  Hourly;                                 !- Reporting Frequency

OS:Output:Variable,
  {d47527ca-9611-4481-b57b-4aa86963d8ba}, !- Handle
  Output Variable 29,                     !- Name
  ,                                       !- Key Value
  Zone Ideal Loads Supply Air Total Cooling Energy, !- Variable Name
  Hourly;                                 !- Reporting Frequency

OS:Output:Variable,
  {dabe5acf-0b87-4acf-b137-3bb8bfd89ad3}, !- Handle
  Output Variable 30,                     !- Name
  ,                                       !- Key Value
  Zone Ideal Loads Supply Air Total Heating Energy, !- Variable Name
  Hourly;                                 !- Reporting Frequency

OS:Output:Variable,
  {a4bd7e28-8b3c-4989-b21c-487191e30cf0}, !- Handle
  Output Variable 31,                     !- Name
  ,                                       !- Key Value
  Zone Lights Electricity Energy,         !- Variable Name
  Hourly;                                 !- Reporting Frequency

OS:Output:Variable,
  {4b561ce6-106c-46df-b343-04617d0e4ea7}, !- Handle
  Output Variable 32,                     !- Name
  ,                                       !- Key Value
  Zone Other Equipment Lost Heat Energy,  !- Variable Name
  Hourly;                                 !- Reporting Frequency

OS:Output:Variable,
  {2a82eb87-af9c-4edd-a902-e27c63f3ad37}, !- Handle
  Output Variable 33,                     !- Name
  ,                                       !- Key Value
  Zone Other Equipment Total Heating Energy, !- Variable Name
  Hourly;                                 !- Reporting Frequency

OS:Output:Variable,
  {38254052-e031-44fd-965b-bc8e8460116f}, !- Handle
  Output Variable 34,                     !- Name
  ,                                       !- Key Value
  Zone VRF Air Terminal Cooling Electricity Energy, !- Variable Name
  Hourly;                                 !- Reporting Frequency

OS:Output:Variable,
  {311c0e6f-17ec-4c95-95af-63fb42234ac6}, !- Handle