
Version,
  23.2;                                       !- Version Identifier (指定EnergyPlus的版本)

Timestep,
  6;                                          !- Number of Timesteps per Hour (每小时的时间步数，这里是6，表示每10分钟一个时间步)

LifeCycleCost:Parameters,
  Life Cycle Cost Parameters,                 !- Name (生命周期成本参数名称)
  EndOfYear,                                  !- Discounting Convention (贴现惯例：年末贴现)
  ConstantDollar,                             !- Inflation Approach (通货膨胀方法：固定美元)
  0.03,                                       !- Real Discount Rate (实际贴现率)
  ,                                           !- Nominal Discount Rate (名义贴现率，未指定)
  ,                                           !- Inflation (通货膨胀率，未指定)
  ,                                           !- Base Date Month (基准日期月份，未指定)
  2011,                                       !- Base Date Year (基准日期年份)
  ,                                           !- Service Date Month (服务日期月份，未指定)
  2011,                                       !- Service Date Year (服务日期年份)
  25,                                         !- Length of Study Period in Years (研究周期长度，25年)
  ,                                           !- Tax rate (税率，未指定)
  None;                                       !- Depreciation Method (折旧方法：无)

LifeCycleCost:UsePriceEscalation,
  U.S. Avg  Commercial-Electricity,           !- Name (名称：美国平均商业电力)
  Electricity,                                !- Resource (资源类型：电力)
  2011,                                       !- Escalation Start Year (上涨开始年份)
  January,                                    !- Escalation Start Month (上涨开始月份：一月)
  0.9838,                                     !- Year Escalation 1 (第1年的上涨率)
  0.9730,                                     !- Year Escalation 2 (第2年的上涨率)
  0.9632,                                     !- Year Escalation 3
  0.9611,                                     !- Year Escalation 4
  0.9571,                                 !- Year Escalation 5
  0.9553,                                 !- Year Escalation 6
  0.9539,                                 !- Year Escalation 7
  0.9521,                                 !- Year Escalation 8
  0.9546,                                 !- Year Escalation 9
  0.9550,                                 !- Year Escalation 10
  0.9553,                                 !- Year Escalation 11
  0.9564,                                 !- Year Escalation 12
  0.9575,                                 !- Year Escalation 13
  0.9596,                                 !- Year Escalation 14
  0.9618,                                 !- Year Escalation 15
  0.9614,                                 !- Year Escalation 16
  0.9618,                                 !- Year Escalation 17
  0.9618,                                 !- Year Escalation 18
  0.9593,                                 !- Year Escalation 19
  0.9589,                                 !- Year Escalation 20
  0.9607,                                 !- Year Escalation 21
  0.9625,                                 !- Year Escalation 22
  0.9650,                                 !- Year Escalation 23
  0.9708,                                 !- Year Escalation 24
  0.9751,                                 !- Year Escalation 25
  0.9762,                                 !- Year Escalation 26
  0.9766,                                 !- Year Escalation 27
  0.9766,                                 !- Year Escalation 28
  0.9769,                                 !- Year Escalation 29
  0.9773;                                 !- Year Escalation 30

LifeCycleCost:UsePriceEscalation,
  U.S. Avg  Commercial-Distillate Oil,    !- Name
  FuelOilNo1,                             !- Resource（1号燃油：1号燃油通常是指煤油或轻柴油，常用于家庭供暖和小型工业锅炉。它具有较高的挥发性和较低的粘度，燃烧较清洁。）
  2011,                                   !- Escalation Start Year
  January,                                !- Escalation Start Month
  0.9714,                                 !- Year Escalation 1
  0.9730,                                 !- Year Escalation 2
  0.9942,                                 !- Year Escalation 3
  1.0164,                                 !- Year Escalation 4
  1.0541,                                 !- Year Escalation 5
  1.0928,                                 !- Year Escalation 6
  1.1267,                                 !- Year Escalation 7
  1.1580,                                 !- Year Escalation 8
  1.1792,                                 !- Year Escalation 9
  1.1967,                                 !- Year Escalation 10
  1.2200,                                 !- Year Escalation 11
  1.2333,                                 !- Year Escalation 12
  1.2566,                                 !- Year Escalation 13
  1.2709,                                 !- Year Escalation 14
  1.2826,                                 !- Year Escalation 15
  1.2985,                                 !- Year Escalation 16
  1.3102,                                 !- Year Escalation 17
  1.3250,                                 !- Year Escalation 18
  1.3261,                                 !- Year Escalation 19
  1.3282,                                 !- Year Escalation 20
  1.3324,                                 !- Year Escalation 21
  1.3356,                                 !- Year Escalation 22
  1.3431,                                 !- Year Escalation 23
  1.3510,                                 !- Year Escalation 24
  1.3568,                                 !- Year Escalation 25
  1.3606,                                 !- Year Escalation 26
  1.3637,                                 !- Year Escalation 27
  1.3674,                                 !- Year Escalation 28
  1.3706,                                 !- Year Escalation 29
  1.3743;                                 !- Year Escalation 30

LifeCycleCost:UsePriceEscalation,
  U.S. Avg  Commercial-Residual Oil,      !- Name
  FuelOilNo2,                             !- Resource（2号燃油：2号燃油通常是指标准柴油燃料，广泛用于家庭供暖和电力生产设备。这种燃油比1号燃油粘度更高，适用于较大型的加热设备和锅炉。）
  2011,                                   !- Escalation Start Year
  January,                                !- Escalation Start Month
  0.8469,                                 !- Year Escalation 1
  0.8257,                                 !- Year Escalation 2
  0.8681,                                 !- Year Escalation 3
  0.8988,                                 !- Year Escalation 4
  0.9289,                                 !- Year Escalation 5
  0.9604,                                 !- Year Escalation 6
  0.9897,                                 !- Year Escalation 7
  1.0075,                                 !- Year Escalation 8
  1.0314,                                 !- Year Escalation 9
  1.0554,                                 !- Year Escalation 10
  1.0861,                                 !- Year Escalation 11
  1.1278,                                 !- Year Escalation 12
  1.1497,                                 !- Year Escalation 13
  1.1620,                                 !- Year Escalation 14
  1.1743,                                 !- Year Escalation 15
  1.1852,                                 !- Year Escalation 16
  1.1948,                                 !- Year Escalation 17
  1.2037,                                 !- Year Escalation 18
  1.2071,                                 !- Year Escalation 19
  1.2119,                                 !- Year Escalation 20
  1.2139,                                 !- Year Escalation 21
  1.2194,                                 !- Year Escalation 22
  1.2276,                                 !- Year Escalation 23
  1.2365,                                 !- Year Escalation 24
  1.2420,                                 !- Year Escalation 25
  1.2461,                                 !- Year Escalation 26
  1.2509,                                 !- Year Escalation 27
  1.2550,                                 !- Year Escalation 28
  1.2591,                                 !- Year Escalation 29
  1.2638;                                 !- Year Escalation 30

LifeCycleCost:UsePriceEscalation,
  U.S. Avg  Commercial-Natural gas,       !- Name
  NaturalGas,                             !- Resource（天然气）
  2011,                                   !- Escalation Start Year
  January,                                !- Escalation Start Month
  0.9823,                                 !- Year Escalation 1
  0.9557,                                 !- Year Escalation 2
  0.9279,                                 !- Year Escalation 3
  0.9257,                                 !- Year Escalation 4
  0.9346,                                 !- Year Escalation 5
  0.9412,                                 !- Year Escalation 6
  0.9512,                                 !- Year Escalation 7
  0.9645,                                 !- Year Escalation 8
  0.9856,                                 !- Year Escalation 9
  1.0067,                                 !- Year Escalation 10
  1.0222,                                 !- Year Escalation 11
  1.0410,                                 !- Year Escalation 12
  1.0610,                                 !- Year Escalation 13
  1.0787,                                 !- Year Escalation 14
  1.0942,                                 !- Year Escalation 15
  1.1098,                                 !- Year Escalation 16
  1.1220,                                 !- Year Escalation 17
  1.1308,                                 !- Year Escalation 18
  1.1386,                                 !- Year Escalation 19
  1.1486,                                 !- Year Escalation 20
  1.1619,                                 !- Year Escalation 21
  1.1763,                                 !- Year Escalation 22
  1.1918,                                 !- Year Escalation 23
  1.2118,                                 !- Year Escalation 24
  1.2284,                                 !- Year Escalation 25
  1.2439,                                 !- Year Escalation 26
  1.2605,                                 !- Year Escalation 27
  1.2772,                                 !- Year Escalation 28
  1.2938,                                 !- Year Escalation 29
  1.3115;                                 !- Year Escalation 30

LifeCycleCost:UsePriceEscalation,
  U.S. Avg  Commercial-Coal,              !- Name
  Coal,                                   !- Resource（煤炭）
  2011,                                   !- Escalation Start Year
  January,                                !- Escalation Start Month
  0.9970,                                 !- Year Escalation 1
  1.0089,                                 !- Year Escalation 2
  1.0089,                                 !- Year Escalation 3
  0.9941,                                 !- Year Escalation 4
  0.9941,                                 !- Year Escalation 5
  1.0000,                                 !- Year Escalation 6
  1.0030,                                 !- Year Escalation 7
  1.0059,                                 !- Year Escalation 8
  1.0089,                                 !- Year Escalation 9
  1.0119,                                 !- Year Escalation 10
  1.0148,                                 !- Year Escalation 11
  1.0178,                                 !- Year Escalation 12
  1.0208,                                 !- Year Escalation 13
  1.0267,                                 !- Year Escalation 14
  1.0297,                                 !- Year Escalation 15
  1.0356,                                 !- Year Escalation 16
  1.0415,                                 !- Year Escalation 17
  1.0534,                                 !- Year Escalation 18
  1.0564,                                 !- Year Escalation 19
  1.0593,                                 !- Year Escalation 20
  1.0653,                                 !- Year Escalation 21
  1.0712,                                 !- Year Escalation 22
  1.0742,                                 !- Year Escalation 23
  1.0801,                                 !- Year Escalation 24
  1.0831,                                 !- Year Escalation 25
  1.0831,                                 !- Year Escalation 26
  1.0861,                                 !- Year Escalation 27
  1.0890,                                 !- Year Escalation 28
  1.0920,                                 !- Year Escalation 29
  1.0950;                                 !- Year Escalation 30

Building,
  test,                                       !- Name (建筑名称)
  0,                                          !- North Axis {deg} (北轴方向，单位：度)
  City,                                       !- Terrain (地形类型：城市)
  ,                                           !- Loads Convergence Tolerance Value {W} (负荷收敛容差值，未指定)
  ,                                           !- Temperature Convergence Tolerance Value {deltaC} (温度收敛容差值，未指定)
  FullExteriorWithReflections,                !- Solar Distribution (太阳能分布模式：完全外部反射)
  ,                                           !- Maximum Number of Warmup Days (最大预热天数，未指定)
  ;                                           !- Minimum Number of Warmup Days (最小预热天数，未指定)

Shading:Building:Detailed,
  PVSD_10_133e269e_0,                         !- Name (遮阳装置名称：1)
  ,                                           !- Transmittance Schedule Name (透光率计划名称，未指定)
  ,                                           !- Number of Vertices (顶点数，未指定)
  29.9900047683716, -43.5200047683716, 0.5,   !- X,Y,Z Vertex 1 {m} (顶点1坐标，单位：米)
  29.9900047683716, -43.6700047683716, 0.5,   !- X,Y,Z Vertex 2 {m} (顶点2坐标，单位：米)
  32.0300047683716, -43.6700047683716, 0.5,   !- X,Y,Z Vertex 3 {m} (顶点3坐标，单位：米)
  32.0300047683716, -43.5200047683716, 0.5;   !- X,Y,Z Vertex 4 {m} (顶点4坐标，单位：米)

Shading:Building:Detailed,
  PVSD_10_133e269e_1,                     !- Name（2）
  ,                                       !- Transmittance Schedule Name
  ,                                       !- Number of Vertices
  32.0300047683716, -43.5200047683716, 0.495000000000005, !- X,Y,Z Vertex 1 {m}
  32.0300047683716, -43.6700047683716, 0.495000000000005, !- X,Y,Z Vertex 2 {m}
  29.9900047683716, -43.6700047683716, 0.495000000000005, !- X,Y,Z Vertex 3 {m}
  29.9900047683716, -43.5200047683716, 0.495000000000005; !- X,Y,Z Vertex 4 {m}

Shading:Building:Detailed,
  PVSD_11_93b7b787_0,                     !- Name（3）
  ,                                       !- Transmittance Schedule Name
  ,                                       !- Number of Vertices
  29.9900047683716, -43.5200047683716, 0.350000000000001, !- X,Y,Z Vertex 1 {m}
  29.9900047683716, -43.6700047683716, 0.350000000000001, !- X,Y,Z Vertex 2 {m}
  32.0300047683716, -43.6700047683716, 0.350000000000001, !- X,Y,Z Vertex 3 {m}
  32.0300047683716, -43.5200047683716, 0.350000000000001; !- X,Y,Z Vertex 4 {m}

Shading:Building:Detailed,
  PVSD_11_93b7b787_1,                     !- Name（4）
  ,                                       !- Transmittance Schedule Name
  ,                                       !- Number of Vertices
  32.0300047683716, -43.5200047683716, 0.345000000000006, !- X,Y,Z Vertex 1 {m}
  32.0300047683716, -43.6700047683716, 0.345000000000006, !- X,Y,Z Vertex 2 {m}
  29.9900047683716, -43.6700047683716, 0.345000000000006, !- X,Y,Z Vertex 3 {m}
  29.9900047683716, -43.5200047683716, 0.345000000000006; !- X,Y,Z Vertex 4 {m}

Shading:Building:Detailed,
  PVSD_12_3787333a_0,                     !- Name（5）
  ,                                       !- Transmittance Schedule Name
  ,                                       !- Number of Vertices
  29.9900047683716, -43.5200047683716, 0.199999999999996, !- X,Y,Z Vertex 1 {m}
  29.9900047683716, -43.6700047683716, 0.199999999999996, !- X,Y,Z Vertex 2 {m}
  32.0300047683716, -43.6700047683716, 0.199999999999996, !- X,Y,Z Vertex 3 {m}
  32.0300047683716, -43.5200047683716, 0.199999999999996; !- X,Y,Z Vertex 4 {m}

Shading:Building:Detailed,
  PVSD_12_3787333a_1,                     !- Name（6）
  ,                                       !- Transmittance Schedule Name
  ,                                       !- Number of Vertices
  32.0300047683716, -43.5200047683716, 0.195, !- X,Y,Z Vertex 1 {m}
  32.0300047683716, -43.6700047683716, 0.195, !- X,Y,Z Vertex 2 {m}
  29.9900047683716, -43.6700047683716, 0.195, !- X,Y,Z Vertex 3 {m}
  29.9900047683716, -43.5200047683716, 0.195; !- X,Y,Z Vertex 4 {m}

Shading:Building:Detailed,
  PVSD_13_6f3c5b4d_0,                     !- Name（7）
  ,                                       !- Transmittance Schedule Name
  ,                                       !- Number of Vertices
  29.9900047683716, -43.5200047683716, 0.0499999999999972, !- X,Y,Z Vertex 1 {m}
  29.9900047683716, -43.6700047683716, 0.0499999999999972, !- X,Y,Z Vertex 2 {m}
  32.0300047683716, -43.6700047683716, 0.0499999999999972, !- X,Y,Z Vertex 3 {m}
  32.0300047683716, -43.5200047683716, 0.0499999999999972; !- X,Y,Z Vertex 4 {m}

Shading:Building:Detailed,
  PVSD_13_6f3c5b4d_1,                     !- Name（8）
  ,                                       !- Transmittance Schedule Name
  ,                                       !- Number of Vertices
  32.0300047683716, -43.5200047683716, 0.0450000000000017, !- X,Y,Z Vertex 1 {m}
  32.0300047683716, -43.6700047683716, 0.0450000000000017, !- X,Y,Z Vertex 2 {m}
  29.9900047683716, -43.6700047683716, 0.0450000000000017, !- X,Y,Z Vertex 3 {m}
  29.9900047683716, -43.5200047683716, 0.0450000000000017; !- X,Y,Z Vertex 4 {m}

Shading:Building:Detailed,
  PVSD_14_458ff0fc_0,                     !- Name（9）
  ,                                       !- Transmittance Schedule Name
  ,                                       !- Number of Vertices
  29.9900047683716, -43.5200047683716, -0.100000000000001, !- X,Y,Z Vertex 1 {m}
  29.9900047683716, -43.6700047683716, -0.100000000000001, !- X,Y,Z Vertex 2 {m}
  32.0300047683716, -43.6700047683716, -0.100000000000001, !- X,Y,Z Vertex 3 {m}
  32.0300047683716, -43.5200047683716, -0.100000000000001; !- X,Y,Z Vertex 4 {m}

Shading:Building:Detailed,
  PVSD_14_458ff0fc_1,                     !- Name（10）
  ,                                       !- Transmittance Schedule Name
  ,                                       !- Number of Vertices
  32.0300047683716, -43.5200047683716, -0.104999999999997, !- X,Y,Z Vertex 1 {m}
  32.0300047683716, -43.6700047683716, -0.104999999999997, !- X,Y,Z Vertex 2 {m}
  29.9900047683716, -43.6700047683716, -0.104999999999997, !- X,Y,Z Vertex 3 {m}
  29.9900047683716, -43.5200047683716, -0.104999999999997; !- X,Y,Z Vertex 4 {m}

Shading:Building:Detailed,
  PVSD_15_f5e8c8bd_0,                     !- Name（11）
  ,                                       !- Transmittance Schedule Name
  ,                                       !- Number of Vertices
  29.9900047683716, -43.5200047683716, -0.25, !- X,Y,Z Vertex 1 {m}
  29.9900047683716, -43.6700047683716, -0.25, !- X,Y,Z Vertex 2 {m}
  32.0300047683716, -43.6700047683716, -0.25, !- X,Y,Z Vertex 3 {m}
  32.0300047683716, -43.5200047683716, -0.25; !- X,Y,Z Vertex 4 {m}

Shading:Building:Detailed,
  PVSD_15_f5e8c8bd_1,                     !- Name（12）
  ,                                       !- Transmittance Schedule Name
  ,                                       !- Number of Vertices
  32.0300047683716, -43.5200047683716, -0.254999999999995, !- X,Y,Z Vertex 1 {m}
  32.0300047683716, -43.6700047683716, -0.254999999999995, !- X,Y,Z Vertex 2 {m}
  29.9900047683716, -43.6700047683716, -0.254999999999995, !- X,Y,Z Vertex 3 {m}
  29.9900047683716, -43.5200047683716, -0.254999999999995; !- X,Y,Z Vertex 4 {m}

Shading:Building:Detailed,
  PVSD_16_a7802795_0,                     !- Name（13）
  ,                                       !- Transmittance Schedule Name
  ,                                       !- Number of Vertices
  29.9900047683716, -43.5200047683716, -0.399999999999999, !- X,Y,Z Vertex 1 {m}
  29.9900047683716, -43.6700047683716, -0.399999999999999, !- X,Y,Z Vertex 2 {m}
  32.0300047683716, -43.6700047683716, -0.399999999999999, !- X,Y,Z Vertex 3 {m}
  32.0300047683716, -43.5200047683716, -0.399999999999999; !- X,Y,Z Vertex 4 {m}

Shading:Building:Detailed,
  PVSD_16_a7802795_1,                     !- Name（14）
  ,                                       !- Transmittance Schedule Name
  ,                                       !- Number of Vertices
  32.0300047683716, -43.5200047683716, -0.404999999999994, !- X,Y,Z Vertex 1 {m}
  32.0300047683716, -43.6700047683716, -0.404999999999994, !- X,Y,Z Vertex 2 {m}
  29.9900047683716, -43.6700047683716, -0.404999999999994, !- X,Y,Z Vertex 3 {m}
  29.9900047683716, -43.5200047683716, -0.404999999999994; !- X,Y,Z Vertex 4 {m}

Shading:Building:Detailed,
  PVSD_1_0f00bcb4_0,                      !- Name（15）
  ,                                       !- Transmittance Schedule Name
  ,                                       !- Number of Vertices
  29.9900047683716, -43.5200047683716, 1.85, !- X,Y,Z Vertex 1 {m}
  29.9900047683716, -43.6700047683716, 1.85, !- X,Y,Z Vertex 2 {m}
  32.0300047683716, -43.6700047683716, 1.85, !- X,Y,Z Vertex 3 {m}
  32.0300047683716, -43.5200047683716, 1.85; !- X,Y,Z Vertex 4 {m}

Shading:Building:Detailed,
  PVSD_1_0f00bcb4_1,                      !- Name（16）
  ,                                       !- Transmittance Schedule Name
  ,                                       !- Number of Vertices
  32.0300047683716, -43.5200047683716, 1.84500000000001, !- X,Y,Z Vertex 1 {m}
  32.0300047683716, -43.6700047683716, 1.84500000000001, !- X,Y,Z Vertex 2 {m}
  29.9900047683716, -43.6700047683716, 1.84500000000001, !- X,Y,Z Vertex 3 {m}
  29.9900047683716, -43.5200047683716, 1.84500000000001; !- X,Y,Z Vertex 4 {m}

Shading:Building:Detailed,
  PVSD_1_a936aa2b_1,                      !- Name（17）
  ,                                       !- Transmittance Schedule Name
  ,                                       !- Number of Vertices
  32.0300047683716, -43.6500047683716, 3, !- X,Y,Z Vertex 1 {m}
  32.0300047683716, -43.6500047683716, 0.6, !- X,Y,Z Vertex 2 {m}
  32.0300047683716, -43.7500047683716, 0.6, !- X,Y,Z Vertex 3 {m}
  32.0300047683716, -43.7500047683716, 3; !- X,Y,Z Vertex 4 {m}

Shading:Building:Detailed,
  PVSD_1_a936aa2b_2,                      !- Name（18）
  ,                                       !- Transmittance Schedule Name
  ,                                       !- Number of Vertices
  32.0900047683716, -43.6500047683716, 3, !- X,Y,Z Vertex 1 {m}
  32.0900047683716, -43.6500047683716, 0.6, !- X,Y,Z Vertex 2 {m}
  32.0300047683716, -43.6500047683716, 0.6, !- X,Y,Z Vertex 3 {m}
  32.0300047683716, -43.6500047683716, 3; !- X,Y,Z Vertex 4 {m}

Shading:Building:Detailed,
  PVSD_1_a936aa2b_3,                      !- Name（19）
  ,                                       !- Transmittance Schedule Name
  ,                                       !- Number of Vertices
  32.0900047683716, -43.7500047683716, 3, !- X,Y,Z Vertex 1 {m}
  32.0900047683716, -43.7500047683716, 0.6, !- X,Y,Z Vertex 2 {m}
  32.0900047683716, -43.6500047683716, 0.6, !- X,Y,Z Vertex 3 {m}
  32.0900047683716, -43.6500047683716, 3; !- X,Y,Z Vertex 4 {m}

Shading:Building:Detailed,
  PVSD_1_a936aa2b_4,                      !- Name（20）
  ,                                       !- Transmittance Schedule Name
  ,                                       !- Number of Vertices
  32.0300047683716, -43.7500047683716, 3, !- X,Y,Z Vertex 1 {m}
  32.0300047683716, -43.7500047683716, 0.6, !- X,Y,Z Vertex 2 {m}
  32.0900047683716, -43.7500047683716, 0.6, !- X,Y,Z Vertex 3 {m}
  32.0900047683716, -43.7500047683716, 3; !- X,Y,Z Vertex 4 {m}

Shading:Building:Detailed,
  PVSD_2_0f12316f_1,                      !- Name（21）
  ,                                       !- Transmittance Schedule Name
  ,                                       !- Number of Vertices
  29.9300047683716, -43.6500047683716, 3, !- X,Y,Z Vertex 1 {m}
  29.9300047683716, -43.6500047683716, 0.6, !- X,Y,Z Vertex 2 {m}
  29.9300047683716, -43.7500047683716, 0.6, !- X,Y,Z Vertex 3 {m}
  29.9300047683716, -43.7500047683716, 3; !- X,Y,Z Vertex 4 {m}

Shading:Building:Detailed,
  PVSD_2_0f12316f_2,                      !- Name（22）
  ,                                       !- Transmittance Schedule Name
  ,                                       !- Number of Vertices
  29.9900047683716, -43.6500047683716, 3, !- X,Y,Z Vertex 1 {m}
  29.9900047683716, -43.6500047683716, 0.6, !- X,Y,Z Vertex 2 {m}
  29.9300047683716, -43.6500047683716, 0.6, !- X,Y,Z Vertex 3 {m}
  29.9300047683716, -43.6500047683716, 3; !- X,Y,Z Vertex 4 {m}

Shading:Building:Detailed,
  PVSD_2_0f12316f_3,                      !- Name（23）
  ,                                       !- Transmittance Schedule Name
  ,                                       !- Number of Vertices
  29.9900047683716, -43.7500047683716, 3, !- X,Y,Z Vertex 1 {m}
  29.9900047683716, -43.7500047683716, 0.6, !- X,Y,Z Vertex 2 {m}
  29.9900047683716, -43.6500047683716, 0.6, !- X,Y,Z Vertex 3 {m}
  29.9900047683716, -43.6500047683716, 3; !- X,Y,Z Vertex 4 {m}

Shading:Building:Detailed,
  PVSD_2_0f12316f_4,                      !- Name（24）
  ,                                       !- Transmittance Schedule Name
  ,                                       !- Number of Vertices
  29.9300047683716, -43.7500047683716, 3, !- X,Y,Z Vertex 1 {m}
  29.9300047683716, -43.7500047683716, 0.6, !- X,Y,Z Vertex 2 {m}
  29.9900047683716, -43.7500047683716, 0.6, !- X,Y,Z Vertex 3 {m}
  29.9900047683716, -43.7500047683716, 3; !- X,Y,Z Vertex 4 {m}

Shading:Building:Detailed,
  PVSD_2_f1de2046_0,                      !- Name（25）
  ,                                       !- Transmittance Schedule Name
  ,                                       !- Number of Vertices
  29.9900047683716, -43.5200047683716, 1.7, !- X,Y,Z Vertex 1 {m}
  29.9900047683716, -43.6700047683716, 1.7, !- X,Y,Z Vertex 2 {m}
  32.0300047683716, -43.6700047683716, 1.7, !- X,Y,Z Vertex 3 {m}
  32.0300047683716, -43.5200047683716, 1.7; !- X,Y,Z Vertex 4 {m}

Shading:Building:Detailed,
  PVSD_2_f1de2046_1,                      !- Name（26）
  ,                                       !- Transmittance Schedule Name
  ,                                       !- Number of Vertices
  32.0300047683716, -43.5200047683716, 1.695, !- X,Y,Z Vertex 1 {m}
  32.0300047683716, -43.6700047683716, 1.695, !- X,Y,Z Vertex 2 {m}
  29.9900047683716, -43.6700047683716, 1.695, !- X,Y,Z Vertex 3 {m}
  29.9900047683716, -43.5200047683716, 1.695; !- X,Y,Z Vertex 4 {m}

Shading:Building:Detailed,
  PVSD_3_33ffadbb_0,                      !- Name（27）
  ,                                       !- Transmittance Schedule Name
  ,                                       !- Number of Vertices
  29.9900047683716, -43.5200047683716, 1.55, !- X,Y,Z Vertex 1 {m}
  29.9900047683716, -43.6700047683716, 1.55, !- X,Y,Z Vertex 2 {m}
  32.0300047683716, -43.6700047683716, 1.55, !- X,Y,Z Vertex 3 {m}
  32.0300047683716, -43.5200047683716, 1.55; !- X,Y,Z Vertex 4 {m}

Shading:Building:Detailed,
  PVSD_3_33ffadbb_1,                      !- Name（28）
  ,                                       !- Transmittance Schedule Name
  ,                                       !- Number of Vertices
  32.0300047683716, -43.5200047683716, 1.545, !- X,Y,Z Vertex 1 {m}
  32.0300047683716, -43.6700047683716, 1.545, !- X,Y,Z Vertex 2 {m}
  29.9900047683716, -43.6700047683716, 1.545, !- X,Y,Z Vertex 3 {m}
  29.9900047683716, -43.5200047683716, 1.545; !- X,Y,Z Vertex 4 {m}

Shading:Building:Detailed,
  PVSD_4_fe911d0c_0,                      !- Name（29）
  ,                                       !- Transmittance Schedule Name
  ,                                       !- Number of Vertices
  29.9900047683716, -43.5200047683716, 1.4, !- X,Y,Z Vertex 1 {m}
  29.9900047683716, -43.6700047683716, 1.4, !- X,Y,Z Vertex 2 {m}
  32.0300047683716, -43.6700047683716, 1.4, !- X,Y,Z Vertex 3 {m}
  32.0300047683716, -43.5200047683716, 1.4; !- X,Y,Z Vertex 4 {m}

Shading:Building:Detailed,
  PVSD_4_fe911d0c_1,                      !- Name（30）
  ,                                       !- Transmittance Schedule Name
  ,                                       !- Number of Vertices
  32.0300047683716, -43.5200047683716, 1.395, !- X,Y,Z Vertex 1 {m}
  32.0300047683716, -43.6700047683716, 1.395, !- X,Y,Z Vertex 2 {m}
  29.9900047683716, -43.6700047683716, 1.395, !- X,Y,Z Vertex 3 {m}
  29.9900047683716, -43.5200047683716, 1.395; !- X,Y,Z Vertex 4 {m}

Shading:Building:Detailed,
  PVSD_5_0a007518_0,                      !- Name（31）
  ,                                       !- Transmittance Schedule Name
  ,                                       !- Number of Vertices
  29.9900047683716, -43.5200047683716, 1.25, !- X,Y,Z Vertex 1 {m}
  29.9900047683716, -43.6700047683716, 1.25, !- X,Y,Z Vertex 2 {m}
  32.0300047683716, -43.6700047683716, 1.25, !- X,Y,Z Vertex 3 {m}
  32.0300047683716, -43.5200047683716, 1.25; !- X,Y,Z Vertex 4 {m}

Shading:Building:Detailed,
  PVSD_5_0a007518_1,                      !- Name（32）
  ,                                       !- Transmittance Schedule Name
  ,                                       !- Number of Vertices
  32.0300047683716, -43.5200047683716, 1.245, !- X,Y,Z Vertex 1 {m}
  32.0300047683716, -43.6700047683716, 1.245, !- X,Y,Z Vertex 2 {m}
  29.9900047683716, -43.6700047683716, 1.245, !- X,Y,Z Vertex 3 {m}
  29.9900047683716, -43.5200047683716, 1.245; !- X,Y,Z Vertex 4 {m}

Shading:Building:Detailed,
  PVSD_6_1a5d233b_0,                      !- Name（33）
  ,                                       !- Transmittance Schedule Name
  ,                                       !- Number of Vertices
  29.9900047683716, -43.5200047683716, 1.1, !- X,Y,Z Vertex 1 {m}
  29.9900047683716, -43.6700047683716, 1.1, !- X,Y,Z Vertex 2 {m}
  32.0300047683716, -43.6700047683716, 1.1, !- X,Y,Z Vertex 3 {m}
  32.0300047683716, -43.5200047683716, 1.1; !- X,Y,Z Vertex 4 {m}

Shading:Building:Detailed,
  PVSD_6_1a5d233b_1,                      !- Name（34）