
OS:Version,
  {f9fcde5c-0227-4a46-b884-605508e84e8d}, !- Handle
  3.7.0;                                  !- Version Identifier

OS:Building,
  {08ee9172-e12c-4d70-abb4-3dd7aaa9f467}, !- Handle
  test&#13&#10,                           !- Name
  ,                                       !- Building Sector Type
  0,                                      !- North Axis {deg}
  ,                                       !- Nominal Floor to Floor Height {m}
  ,                                       !- Space Type Name
  {076f2ae3-6d9a-4a6d-8010-b64e4e267104}, !- Default Construction Set Name
  ,                                       !- Default Schedule Set Name
  ,                                       !- Standards Number of Stories
  ,                                       !- Standards Number of Above Ground Stories
  ,                                       !- Standards Template
  MediumOffice;                           !- Standards Building Type

OS:Facility,
  {e29b94e3-6720-4f94-af3d-c759b17d7101}; !- Handle

OS:Site,
  {741ead64-f93e-45c3-a69d-18fb00f2c796}, !- Handle
  Site 1,                                 !- Name
  ,                                       !- Latitude {deg}
  ,                                       !- Longitude {deg}
  ,                                       !- Time Zone {hr}
  ,                                       !- Elevation {m}
  City;                                   !- Terrain

OS:SimulationControl,
  {6bde0300-ee7d-4d87-800c-8b2fb20dd2fe}, !- Handle
  Yes,                                    !- Do Zone Sizing Calculation
  Yes,                                    !- Do System Sizing Calculation
  Yes,                                    !- Do Plant Sizing Calculation
  No,                                     !- Run Simulation for Sizing Periods
  Yes,                                    !- Run Simulation for Weather File Run Periods
  ,                                       !- Loads Convergence Tolerance Value {W}
  ,                                       !- Temperature Convergence Tolerance Value {deltaC}
  FullExteriorWithReflections;            !- Solar Distribution

OS:Sizing:Parameters,
  {cb1ba071-ebea-4abc-afac-aea4c7d38218}, !- Handle
  1.25,                                   !- Heating Sizing Factor
  1.15;                                   !- Cooling Sizing Factor

OS:Timestep,
  {8fa52f0a-61cb-455b-b96c-51d8b5d02188}, !- Handle
  6;                                      !- Number of Timesteps per Hour

OS:ShadowCalculation,
  {31189840-631d-44fb-ba6b-2fda3a504b18}, !- Handle
  PolygonClipping,                        !- Shading Calculation Method
  Periodic,                               !- Shading Calculation Update Frequency Method
  30,                                     !- Shading Calculation Update Frequency
  15000,                                  !- Maximum Figures in Shadow Overlap Calculations
  ,                                       !- Polygon Clipping Algorithm
  512,                                    !- Pixel Counting Resolution
  ,                                       !- Sky Diffuse Modeling Algorithm
  No,                                     !- Output External Shading Calculation Results
  No,                                     !- Disable Self-Shading Within Shading Zone Groups
  No;                                     !- Disable Self-Shading From Shading Zone Groups to Other Zones

OS:HeatBalanceAlgorithm,
  {d4f2a3b3-c563-408a-be79-4c53ceb015cf}, !- Handle
  ConductionTransferFunction,             !- Algorithm
  200;                                    !- Surface Temperature Upper Limit {C}

OS:RunPeriod,
  {625603d9-d295-4a79-bb5c-c65b76962973}, !- Handle
  Run Period 1,                           !- Name
  1,                                      !- Begin Month
  1,                                      !- Begin Day of Month
  12,                                     !- End Month
  31,                                     !- End Day of Month
  ,                                       !- Use Weather File Holidays and Special Days
  ,                                       !- Use Weather File Daylight Saving Period
  ,                                       !- Apply Weekend Holiday Rule
  ,                                       !- Use Weather File Rain Indicators
  ,                                       !- Use Weather File Snow Indicators
  ;                                       !- Number of Times Runperiod to be Repeated

OS:LifeCycleCost:Parameters,
  {3cf37bb1-5fbd-404e-ad71-9ac9b740c6eb}, !- Handle
  ,                                       !- Analysis Type
  ,                                       !- Discounting Convention
  ,                                       !- Inflation Approach
  ,                                       !- Real Discount Rate
  ,                                       !- Nominal Discount Rate
  ,                                       !- Inflation
  ,                                       !- Base Date Month
  ,                                       !- Base Date Year
  ,                                       !- Service Date Month
  ,                                       !- Service Date Year
  ;                                       !- Length of Study Period in Years

OS:WeatherFile,
  {ccffdf16-8dfc-4212-8343-16c86816408e}, !- Handle
  SHENZHEN,                               !- City
  -,                                      !- State Province Region
  CHN,                                    !- Country
  SWERA,                                  !- Data Source
  594930,                                 !- WMO Number
  22.55,                                  !- Latitude {deg}
  114.1,                                  !- Longitude {deg}
  8,                                      !- Time Zone {hr}
  18,                                     !- Elevation {m}
  C:/Users/ADMIN/AppData/Roaming/ladybug_tools/weather/CHN_Guangdong.Shenzhen.594930_SWERA/CHN_Guangdong.Shenzhen.594930_SWERA.epw, !- Url
  46D93030,                               !- Checksum
  ,                                       !- Start Date Actual Year
  Sunday;                                 !- Start Day of Week

OS:SizingPeriod:DesignDay,
  {6c5d6541-54d7-4bdc-b3e4-7d8603fb0f70}, !- Handle
  SHENZHEN Ann Htg 99.6% Condns DB,       !- Name
  6.9,                                    !- Maximum Dry-Bulb Temperature {C}
  0,                                      !- Daily Dry-Bulb Temperature Range {deltaC}
  101109,                                 !- Barometric Pressure {Pa}
  4.5,                                    !- Wind Speed {m/s}
  20,                                     !- Wind Direction {deg}
  0,                                      !- Sky Clearness
  ,                                       !- Rain Indicator
  ,                                       !- Snow Indicator
  21,                                     !- Day of Month
  1,                                      !- Month
  WinterDesignDay,                        !- Day Type
  ,                                       !- Daylight Saving Time Indicator
  Wetbulb,                                !- Humidity Condition Type
  ,                                       !- Humidity Condition Day Schedule Name
  6.9,                                    !- Wetbulb or DewPoint at Maximum Dry-Bulb {C}
  ,                                       !- Humidity Ratio at Maximum Dry-Bulb {kgWater/kgDryAir}
  ,                                       !- Enthalpy at Maximum Dry-Bulb {J/kg}
  ,                                       !- Dry-Bulb Temperature Range Modifier Type
  ,                                       !- Dry-Bulb Temperature Range Modifier Day Schedule Name
  ASHRAEClearSky;                         !- Solar Model Indicator

OS:SizingPeriod:DesignDay,
  {5fab1ed4-095c-4401-a5fe-62c53fedc527}, !- Handle
  SHENZHEN Ann Hum_n 99.6% Condns DP=>MCDB, !- Name
  12.3,                                   !- Maximum Dry-Bulb Temperature {C}
  0,                                      !- Daily Dry-Bulb Temperature Range {deltaC}
  101109,                                 !- Barometric Pressure {Pa}
  4.5,                                    !- Wind Speed {m/s}
  20,                                     !- Wind Direction {deg}
  0,                                      !- Sky Clearness
  ,                                       !- Rain Indicator
  ,                                       !- Snow Indicator
  21,                                     !- Day of Month
  1,                                      !- Month
  WinterDesignDay,                        !- Day Type
  ,                                       !- Daylight Saving Time Indicator
  Dewpoint,                               !- Humidity Condition Type
  ,                                       !- Humidity Condition Day Schedule Name
  -5.1,                                   !- Wetbulb or DewPoint at Maximum Dry-Bulb {C}
  ,                                       !- Humidity Ratio at Maximum Dry-Bulb {kgWater/kgDryAir}
  ,                                       !- Enthalpy at Maximum Dry-Bulb {J/kg}
  ,                                       !- Dry-Bulb Temperature Range Modifier Type
  ,                                       !- Dry-Bulb Temperature Range Modifier Day Schedule Name
  ASHRAEClearSky;                         !- Solar Model Indicator

OS:SizingPeriod:DesignDay,
  {39abf3e6-c041-4836-84d0-f3aa93328af4}, !- Handle
  SHENZHEN Ann Htg Wind 99.6% Condns WS=>MCDB, !- Name
  11.9,                                   !- Maximum Dry-Bulb Temperature {C}
  0,                                      !- Daily Dry-Bulb Temperature Range {deltaC}
  101109,                                 !- Barometric Pressure {Pa}
  8.4,                                    !- Wind Speed {m/s}
  20,                                     !- Wind Direction {deg}
  0,                                      !- Sky Clearness
  ,                                       !- Rain Indicator
  ,                                       !- Snow Indicator
  21,                                     !- Day of Month
  1,                                      !- Month
  WinterDesignDay,                        !- Day Type
  ,                                       !- Daylight Saving Time Indicator
  Wetbulb,                                !- Humidity Condition Type
  ,                                       !- Humidity Condition Day Schedule Name
  11.9,                                   !- Wetbulb or DewPoint at Maximum Dry-Bulb {C}
  ,                                       !- Humidity Ratio at Maximum Dry-Bulb {kgWater/kgDryAir}
  ,                                       !- Enthalpy at Maximum Dry-Bulb {J/kg}
  ,                                       !- Dry-Bulb Temperature Range Modifier Type
  ,                                       !- Dry-Bulb Temperature Range Modifier Day Schedule Name
  ASHRAEClearSky;                         !- Solar Model Indicator

OS:SizingPeriod:DesignDay,
  {63bdc0a5-5fcd-46c4-b5af-71960ffcec08}, !- Handle
  SHENZHEN Ann Clg .4% Condns DB=>MWB,    !- Name
  33.8,                                   !- Maximum Dry-Bulb Temperature {C}
  5.3,                                    !- Daily Dry-Bulb Temperature Range {deltaC}
  101109,                                 !- Barometric Pressure {Pa}
  3.4,                                    !- Wind Speed {m/s}
  220,                                    !- Wind Direction {deg}
  ,                                       !- Sky Clearness
  ,                                       !- Rain Indicator
  ,                                       !- Snow Indicator
  21,                                     !- Day of Month
  7,                                      !- Month
  SummerDesignDay,                        !- Day Type
  ,                                       !- Daylight Saving Time Indicator
  Wetbulb,                                !- Humidity Condition Type
  ,                                       !- Humidity Condition Day Schedule Name
  26.5,                                   !- Wetbulb or DewPoint at Maximum Dry-Bulb {C}
  ,                                       !- Humidity Ratio at Maximum Dry-Bulb {kgWater/kgDryAir}
  ,                                       !- Enthalpy at Maximum Dry-Bulb {J/kg}
  ,                                       !- Dry-Bulb Temperature Range Modifier Type
  ,                                       !- Dry-Bulb Temperature Range Modifier Day Schedule Name
  ASHRAETau,                              !- Solar Model Indicator
  ,                                       !- Beam Solar Day Schedule Name
  ,                                       !- Diffuse Solar Day Schedule Name
  0.685,                                  !- ASHRAE Clear Sky Optical Depth for Beam Irradiance {dimensionless}
  1.554;                                  !- ASHRAE Clear Sky Optical Depth for Diffuse Irradiance {dimensionless}

OS:SizingPeriod:DesignDay,
  {cd6610eb-add0-4413-81f4-712d1e622570}, !- Handle
  SHENZHEN Ann Clg .4% Condns WB=>MDB,    !- Name
  31,                                     !- Maximum Dry-Bulb Temperature {C}
  5.3,                                    !- Daily Dry-Bulb Temperature Range {deltaC}
  101109,                                 !- Barometric Pressure {Pa}
  3.4,                                    !- Wind Speed {m/s}
  220,                                    !- Wind Direction {deg}
  ,                                       !- Sky Clearness
  ,                                       !- Rain Indicator
  ,                                       !- Snow Indicator
  21,                                     !- Day of Month
  7,                                      !- Month
  SummerDesignDay,                        !- Day Type
  ,                                       !- Daylight Saving Time Indicator
  Wetbulb,                                !- Humidity Condition Type
  ,                                       !- Humidity Condition Day Schedule Name
  28.8,                                   !- Wetbulb or DewPoint at Maximum Dry-Bulb {C}
  ,                                       !- Humidity Ratio at Maximum Dry-Bulb {kgWater/kgDryAir}
  ,                                       !- Enthalpy at Maximum Dry-Bulb {J/kg}
  ,                                       !- Dry-Bulb Temperature Range Modifier Type
  ,                                       !- Dry-Bulb Temperature Range Modifier Day Schedule Name
  ASHRAETau,                              !- Solar Model Indicator
  ,                                       !- Beam Solar Day Schedule Name
  ,                                       !- Diffuse Solar Day Schedule Name
  0.685,                                  !- ASHRAE Clear Sky Optical Depth for Beam Irradiance {dimensionless}
  1.554;                                  !- ASHRAE Clear Sky Optical Depth for Diffuse Irradiance {dimensionless}

OS:SizingPeriod:DesignDay,
  {3d7041bd-0c72-42a7-9281-4645b00bbd8f}, !- Handle
  SHENZHEN Ann Clg .4% Condns DP=>MDB,    !- Name
  30.2,                                   !- Maximum Dry-Bulb Temperature {C}
  5.3,                                    !- Daily Dry-Bulb Temperature Range {deltaC}
  101109,                                 !- Barometric Pressure {Pa}
  3.4,                                    !- Wind Speed {m/s}
  220,                                    !- Wind Direction {deg}
  ,                                       !- Sky Clearness
  ,                                       !- Rain Indicator
  ,                                       !- Snow Indicator
  21,                                     !- Day of Month
  7,                                      !- Month
  SummerDesignDay,                        !- Day Type
  ,                                       !- Daylight Saving Time Indicator
  Dewpoint,                               !- Humidity Condition Type
  ,                                       !- Humidity Condition Day Schedule Name
  28.2,                                   !- Wetbulb or DewPoint at Maximum Dry-Bulb {C}
  ,                                       !- Humidity Ratio at Maximum Dry-Bulb {kgWater/kgDryAir}
  ,                                       !- Enthalpy at Maximum Dry-Bulb {J/kg}
  ,                                       !- Dry-Bulb Temperature Range Modifier Type
  ,                                       !- Dry-Bulb Temperature Range Modifier Day Schedule Name
  ASHRAETau,                              !- Solar Model Indicator
  ,                                       !- Beam Solar Day Schedule Name
  ,                                       !- Diffuse Solar Day Schedule Name
  0.685,                                  !- ASHRAE Clear Sky Optical Depth for Beam Irradiance {dimensionless}
  1.554;                                  !- ASHRAE Clear Sky Optical Depth for Diffuse Irradiance {dimensionless}

OS:SizingPeriod:DesignDay,
  {a92751af-2e33-466a-86ee-3c01e3c8c032}, !- Handle
  SHENZHEN Ann Clg .4% Condns Enth=>MDB,  !- Name
  31.3,                                   !- Maximum Dry-Bulb Temperature {C}
  5.3,                                    !- Daily Dry-Bulb Temperature Range {deltaC}
  101109,                                 !- Barometric Pressure {Pa}
  3.4,                                    !- Wind Speed {m/s}
  220,                                    !- Wind Direction {deg}
  ,                                       !- Sky Clearness
  ,                                       !- Rain Indicator
  ,                                       !- Snow Indicator
  21,                                     !- Day of Month
  7,                                      !- Month
  SummerDesignDay,                        !- Day Type
  ,                                       !- Daylight Saving Time Indicator
  Enthalpy,                               !- Humidity Condition Type
  ,                                       !- Humidity Condition Day Schedule Name
  23,                                     !- Wetbulb or DewPoint at Maximum Dry-Bulb {C}
  ,                                       !- Humidity Ratio at Maximum Dry-Bulb {kgWater/kgDryAir}
  94500,                                  !- Enthalpy at Maximum Dry-Bulb {J/kg}
  ,                                       !- Dry-Bulb Temperature Range Modifier Type
  ,                                       !- Dry-Bulb Temperature Range Modifier Day Schedule Name
  ASHRAETau,                              !- Solar Model Indicator
  ,                                       !- Beam Solar Day Schedule Name
  ,                                       !- Diffuse Solar Day Schedule Name
  0.685,                                  !- ASHRAE Clear Sky Optical Depth for Beam Irradiance {dimensionless}
  1.554;                                  !- ASHRAE Clear Sky Optical Depth for Diffuse Irradiance {dimensionless}

OS:Site:WaterMainsTemperature,
  {b1fdc61b-7256-47eb-866f-156549baa06e}, !- Handle
  CorrelationFromWeatherFile;             !- Calculation Method

OS:ClimateZones,
  {b008a8cf-1488-4170-97c2-2e253f320a38}, !- Handle
  ASHRAE,                                 !- Climate Zone Institution Name 1
  ANSI/ASHRAE Standard 169,               !- Climate Zone Document Name 1
  2006,                                   !- Climate Zone Document Year 1
  2A;                                     !- Climate Zone Value 1

OS:OutputControl:ReportingTolerances,
  {d26e008e-3338-405c-aaa8-1ab1c62889d9}, !- Handle
  1.11,                                   !- Tolerance for Time Heating Setpoint Not Met {deltaC}
  1.11;                                   !- Tolerance for Time Cooling Setpoint Not Met {deltaC}

OS:Output:Variable,
  {5710c322-732c-4305-9ffb-e75448dda992}, !- Handle
  Output Variable 1,                      !- Name
  ,                                       !- Key Value
  Baseboard Electricity Energy,           !- Variable Name
  Hourly;                                 !- Reporting Frequency

OS:Output:Variable,
  {6d0bd9b9-ac1f-4b6d-8bdc-f5af590bc730}, !- Handle
  Output Variable 2,                      !- Name
  ,                                       !- Key Value
  Boiler Electricity Energy,              !- Variable Name
  Hourly;                                 !- Reporting Frequency

OS:Output:Variable,
  {8f5df516-b3ad-4ff2-8488-36e185dfb312}, !- Handle
  Output Variable 3,                      !- Name
  ,                                       !- Key Value
  Boiler NaturalGas Energy,               !- Variable Name
  Hourly;                                 !- Reporting Frequency

OS:Output:Variable,
  {b4a6e289-8513-4c77-ac63-9bbf8a1eee73}, !- Handle
  Output Variable 4,                      !- Name
  ,                                       !- Key Value
  Chiller Electricity Energy,             !- Variable Name
  Hourly;                                 !- Reporting Frequency

OS:Output:Variable,
  {b3d2e3c4-1b5f-4b62-81f3-2cdc5856d9c2}, !- Handle
  Output Variable 5,                      !- Name
  ,                                       !- Key Value
  Chiller Heater System Cooling Electricity Energy, !- Variable Name
  Hourly;                                 !- Reporting Frequency

OS:Output:Variable,
  {89da7058-f6fc-4016-8526-38899999c5ca}, !- Handle
  Output Variable 6,                      !- Name
  ,                                       !- Key Value
  Chiller Heater System Heating Electricity Energy, !- Variable Name
  Hourly;                                 !- Reporting Frequency

OS:Output:Variable,
  {a5cbf1ca-35a5-4604-bf11-e17ea2d4cc8d}, !- Handle
  Output Variable 7,                      !- Name
  ,                                       !- Key Value
  Cooling Coil Electricity Energy,        !- Variable Name
  Hourly;                                 !- Reporting Frequency

OS:Output:Variable,
  {47cc39c5-8ff1-4794-ac73-328a9b6ff0f3}, !- Handle
  Output Variable 8,                      !- Name
  ,                                       !- Key Value
  Cooling Coil Water Heating Electricity Energy, !- Variable Name
  Hourly;                                 !- Reporting Frequency

OS:Output:Variable,
  {01911f8d-9322-4751-98e5-184f78e96244}, !- Handle
  Output Variable 9,                      !- Name
  ,                                       !- Key Value
  Cooling Tower Fan Electricity Energy,   !- Variable Name
  Hourly;                                 !- Reporting Frequency

OS:Output:Variable,
  {21fbab4f-056b-440b-b87e-96f92423aa8f}, !- Handle
  Output Variable 10,                     !- Name
  ,                                       !- Key Value
  District Cooling Chilled Water Energy,  !- Variable Name
  Hourly;                                 !- Reporting Frequency

OS:Output:Variable,
  {4b89ee1d-c7dc-4677-b7d9-1c6c03a07ab3}, !- Handle
  Output Variable 11,                     !- Name
  ,                                       !- Key Value
  District Heating Hot Water Energy,      !- Variable Name
  Hourly;                                 !- Reporting Frequency

OS:Output:Variable,
  {783863a2-97b0-40fd-8c3e-b75eab5e0d39}, !- Handle
  Output Variable 12,                     !- Name
  ,                                       !- Key Value
  Evaporative Cooler Electricity Energy,  !- Variable Name
  Hourly;                                 !- Reporting Frequency

OS:Output:Variable,
  {23c46afb-0e92-4294-b122-b9ddbab20149}, !- Handle
  Output Variable 13,                     !- Name
  ,                                       !- Key Value
  Fan Electricity Energy,                 !- Variable Name
  Hourly;                                 !- Reporting Frequency

OS:Output:Variable,
  {ab6fb8bc-3a01-4776-8bf1-3210efc7bbab}, !- Handle
  Output Variable 14,                     !- Name
  ,                                       !- Key Value
  Heating Coil Electricity Energy,        !- Variable Name
  Hourly;                                 !- Reporting Frequency

OS:Output:Variable,
  {30bd4781-b291-41c8-a34b-e4c62112b6e6}, !- Handle
  Output Variable 15,                     !- Name
  ,                                       !- Key Value
  Heating Coil NaturalGas Energy,         !- Variable Name
  Hourly;                                 !- Reporting Frequency

OS:Output:Variable,
  {838024a6-5129-4a2b-a16f-28024bbaf261}, !- Handle
  Output Variable 16,                     !- Name
  ,                                       !- Key Value
  Heating Coil Total Heating Energy,      !- Variable Name
  Hourly;                                 !- Reporting Frequency

OS:Output:Variable,
  {ece575f5-ebf2-43d6-b3ee-cff8fad0dcb1}, !- Handle
  Output Variable 17,                     !- Name
  ,                                       !- Key Value
  Hot_Water_Loop_Central_Air_Source_Heat_Pump Electricity Consumption, !- Variable Name
  Hourly;                                 !- Reporting Frequency

OS:Output:Variable,
  {42c47ef8-503e-4cb0-8c49-d9458a1f7deb}, !- Handle
  Output Variable 18,                     !- Name
  ,                                       !- Key Value
  Humidifier Electricity Energy,          !- Variable Name
  Hourly;                                 !- Reporting Frequency

OS:Output:Variable,
  {0a20abcf-de3b-40b1-8717-a1c2395ce466}, !- Handle
  Output Variable 19,                     !- Name
  ,                                       !- Key Value
  Pump Electricity Energy,                !- Variable Name
  Hourly;                                 !- Reporting Frequency

OS:Output:Variable,
  {ca12e9d5-0b6a-4195-81e2-24cb6473ba09}, !- Handle
  Output Variable 20,                     !- Name
  ,                                       !- Key Value
  VRF Heat Pump Cooling Electricity Energy, !- Variable Name
  Hourly;                                 !- Reporting Frequency

OS:Output:Variable,
  {115927a0-5b32-4257-9edf-7e06fe189091}, !- Handle
  Output Variable 21,                     !- Name
  ,                                       !- Key Value
  VRF Heat Pump Crankcase Heater Electricity Energy, !- Variable Name
  Hourly;                                 !- Reporting Frequency

OS:Output:Variable,
  {912635b0-4881-47fb-abc9-519e6ff9835a}, !- Handle
  Output Variable 22,                     !- Name
  ,                                       !- Key Value
  VRF Heat Pump Defrost Electricity Energy, !- Variable Name
  Hourly;                                 !- Reporting Frequency

OS:Output:Variable,
  {0c08888f-4d52-4b0b-82d7-144cbcd20cb6}, !- Handle
  Output Variable 23,                     !- Name
  ,                                       !- Key Value
  VRF Heat Pump Heating Electricity Energy, !- Variable Name
  Hourly;                                 !- Reporting Frequency

OS:Output:Variable,
  {1866115c-7db3-47e8-bb0f-689324785c50}, !- Handle
  Output Variable 24,                     !- Name
  ,                                       !- Key Value
  Water Heater Electricity Energy,        !- Variable Name
  Hourly;                                 !- Reporting Frequency

OS:Output:Variable,
  {77aeddff-85d0-483c-9bfb-0f4243adb98f}, !- Handle
  Output Variable 25,                     !- Name
  ,                                       !- Key Value
  Water Heater NaturalGas Energy,         !- Variable Name
  Hourly;                                 !- Reporting Frequency

OS:Output:Variable,
  {7e9ca69e-5d8d-4fd0-a460-d1bc101b3f21}, !- Handle
  Output Variable 26,                     !- Name
  ,                                       !- Key Value
  Water Use Equipment Heating Energy,     !- Variable Name
  Hourly;                                 !- Reporting Frequency

OS:Output:Variable,
  {c314559c-ba69-48b1-b06e-3d1819e5db86}, !- Handle
  Output Variable 27,                     !- Name
  ,                                       !- Key Value
  Zone Electric Equipment Electricity Energy, !- Variable Name
  Hourly;                                 !- Reporting Frequency

OS:Output:Variable,
  {4f566c02-4b8d-4769-be4e-8c54388f65f7}, !- Handle
  Output Variable 28,                     !- Name
  ,                                       !- Key Value
  Zone Gas Equipment NaturalGas Energy,   !- Variable Name
  Hourly;                                 !- Reporting Frequency

OS:Output:Variable,
  {2e9de98f-73c8-4783-a483-5113d62ffde0}, !- Handle
  Output Variable 29,                     !- Name
  ,                                       !- Key Value
  Zone Ideal Loads Supply Air Total Cooling Energy, !- Variable Name
  Hourly;                                 !- Reporting Frequency

OS:Output:Variable,
  {6ac327b4-53e1-4bb6-9eee-3f16fe6b5e59}, !- Handle
  Output Variable 30,                     !- Name
  ,                                       !- Key Value
  Zone Ideal Loads Supply Air Total Heating Energy, !- Variable Name
  Hourly;                                 !- Reporting Frequency

OS:Output:Variable,
  {0225f1da-d809-4dbf-89e3-fbd524558ba0}, !- Handle
  Output Variable 31,                     !- Name
  ,                                       !- Key Value
  Zone Lights Electricity Energy,         !- Variable Name
  Hourly;                                 !- Reporting Frequency

OS:Output:Variable,
  {f2c8756f-756c-4432-9eff-cfabe6aa0a3b}, !- Handle
  Output Variable 32,                     !- Name
  ,                                       !- Key Value
  Zone Other Equipment Lost Heat Energy,  !- Variable Name
  Hourly;                                 !- Reporting Frequency

OS:Output:Variable,
  {90bafffb-2687-4a6c-9cab-896ccb3d3288}, !- Handle
  Output Variable 33,                     !- Name
  ,                                       !- Key Value
  Zone Other Equipment Total Heating Energy, !- Variable Name
  Hourly;                                 !- Reporting Frequency

OS:Output:Variable,
  {56c6642d-9af9-4ea6-a090-13dae4178ec0}, !- Handle
  Output Variable 34,                     !- Name
  ,                                       !- Key Value
  Zone VRF Air Terminal Cooling Electricity Energy, !- Variable Name
  Hourly;                                 !- Reporting Frequency

OS:Output:Variable,
  {5dfd1c83-10c8-4e02-899a-c6adffa0593a}, !- Handle