!-Generator IDFEditor 1.54
!-Option SortedOrder

!-NOTE: All comments with '!-' are ignored by the IDFEditor and are generated automatically.
!-      Use '!' comments if they need to be retained when using the IDFEditor.


!-   ===========  ALL OBJECTS IN CLASS: VERSION ===========

Version,
    24.1;                    !- Version Identifier


!-   ===========  ALL OBJECTS IN CLASS: SIMULATIONCONTROL ===========

SimulationControl,
    Yes,                     !- Do Zone Sizing Calculation
    Yes,                     !- Do System Sizing Calculation
    Yes,                     !- Do Plant Sizing Calculation
    No,                      !- Run Simulation for Sizing Periods
    Yes,                     !- Run Simulation for Weather File Run Periods
    No,                      !- Do HVAC Sizing Simulation for Sizing Periods
    ;                        !- Maximum Number of HVAC Sizing Simulation Passes


!-   ===========  ALL OBJECTS IN CLASS: BUILDING ===========

Building,
    Simulation 1-241104&#13&#10,  !- Name
    0,                       !- North Axis {deg}
    City,                    !- Terrain
    ,                        !- Loads Convergence Tolerance Value {W}
    ,                        !- Temperature Convergence Tolerance Value {deltaC}
    FullInteriorAndExteriorWithReflections,  !- Solar Distribution
    ,                        !- Maximum Number of Warmup Days
    ;                        !- Minimum Number of Warmup Days


!-   ===========  ALL OBJECTS IN CLASS: SHADOWCALCULATION ===========

ShadowCalculation,
    PolygonClipping,         !- Shading Calculation Method
    Periodic,                !- Shading Calculation Update Frequency Method
    30,                      !- Shading Calculation Update Frequency
    15000,                   !- Maximum Figures in Shadow Overlap Calculations
    SutherlandHodgman,       !- Polygon Clipping Algorithm
    512,                     !- Pixel Counting Resolution
    SimpleSkyDiffuseModeling,!- Sky Diffuse Modeling Algorithm
    No,                      !- Output External Shading Calculation Results
    No,                      !- Disable Self-Shading Within Shading Zone Groups
    No;                      !- Disable Self-Shading From Shading Zone Groups to Other Zones


!-   ===========  ALL OBJECTS IN CLASS: HEATBALANCEALGORITHM ===========

HeatBalanceAlgorithm,
    ConductionTransferFunction,  !- Algorithm
    200;                     !- Surface Temperature Upper Limit {C}


!-   ===========  ALL OBJECTS IN CLASS: TIMESTEP ===========

Timestep,
    1;                       !- Number of Timesteps per Hour


!-   ===========  ALL OBJECTS IN CLASS: SITE:LOCATION ===========

Site:Location,
    Site 1,                  !- Name
    0,                       !- Latitude {deg}
    0,                       !- Longitude {deg}
    0,                       !- Time Zone {hr}
    0;                       !- Elevation {m}


!-   ===========  ALL OBJECTS IN CLASS: SIZINGPERIOD:DESIGNDAY ===========

SizingPeriod:DesignDay,
    SHENZHEN Ann Clg .4% Condns DB=>MWB,  !- Name
    7,                       !- Month
    21,                      !- Day of Month
    SummerDesignDay,         !- Day Type
    33.8,                    !- Maximum Dry-Bulb Temperature {C}
    5.3,                     !- Daily Dry-Bulb Temperature Range {deltaC}
    DefaultMultipliers,      !- Dry-Bulb Temperature Range Modifier Type
    ,                        !- Dry-Bulb Temperature Range Modifier Day Schedule Name
    Wetbulb,                 !- Humidity Condition Type
    26.5,                    !- Wetbulb or DewPoint at Maximum Dry-Bulb {C}
    ,                        !- Humidity Condition Day Schedule Name
    ,                        !- Humidity Ratio at Maximum Dry-Bulb {kgWater/kgDryAir}
    ,                        !- Enthalpy at Maximum Dry-Bulb {J/kg}
    ,                        !- Daily Wet-Bulb Temperature Range {deltaC}
    101109,                  !- Barometric Pressure {Pa}
    3.4,                     !- Wind Speed {m/s}
    220,                     !- Wind Direction {deg}
    No,                      !- Rain Indicator
    No,                      !- Snow Indicator
    No,                      !- Daylight Saving Time Indicator
    ASHRAETau,               !- Solar Model Indicator
    ,                        !- Beam Solar Day Schedule Name
    ,                        !- Diffuse Solar Day Schedule Name
    0.685,                   !- ASHRAE Clear Sky Optical Depth for Beam Irradiance (taub) {dimensionless}
    1.554,                   !- ASHRAE Clear Sky Optical Depth for Diffuse Irradiance (taud) {dimensionless}
    ,                        !- Sky Clearness
    ,                        !- Maximum Number Warmup Days
    FullResetAtBeginEnvironment;  !- Begin Environment Reset Mode

SizingPeriod:DesignDay,
    SHENZHEN Ann Clg .4% Condns DP=>MDB,  !- Name
    7,                       !- Month
    21,                      !- Day of Month
    SummerDesignDay,         !- Day Type
    30.2,                    !- Maximum Dry-Bulb Temperature {C}
    5.3,                     !- Daily Dry-Bulb Temperature Range {deltaC}
    DefaultMultipliers,      !- Dry-Bulb Temperature Range Modifier Type
    ,                        !- Dry-Bulb Temperature Range Modifier Day Schedule Name
    Dewpoint,                !- Humidity Condition Type
    28.2,                    !- Wetbulb or DewPoint at Maximum Dry-Bulb {C}
    ,                        !- Humidity Condition Day Schedule Name
    ,                        !- Humidity Ratio at Maximum Dry-Bulb {kgWater/kgDryAir}
    ,                        !- Enthalpy at Maximum Dry-Bulb {J/kg}
    ,                        !- Daily Wet-Bulb Temperature Range {deltaC}
    101109,                  !- Barometric Pressure {Pa}
    3.4,                     !- Wind Speed {m/s}
    220,                     !- Wind Direction {deg}
    No,                      !- Rain Indicator
    No,                      !- Snow Indicator
    No,                      !- Daylight Saving Time Indicator
    ASHRAETau,               !- Solar Model Indicator
    ,                        !- Beam Solar Day Schedule Name
    ,                        !- Diffuse Solar Day Schedule Name
    0.685,                   !- ASHRAE Clear Sky Optical Depth for Beam Irradiance (taub) {dimensionless}
    1.554,                   !- ASHRAE Clear Sky Optical Depth for Diffuse Irradiance (taud) {dimensionless}
    ,                        !- Sky Clearness
    ,                        !- Maximum Number Warmup Days
    FullResetAtBeginEnvironment;  !- Begin Environment Reset Mode

SizingPeriod:DesignDay,
    SHENZHEN Ann Clg .4% Condns Enth=>MDB,  !- Name
    7,                       !- Month
    21,                      !- Day of Month
    SummerDesignDay,         !- Day Type
    31.3,                    !- Maximum Dry-Bulb Temperature {C}
    5.3,                     !- Daily Dry-Bulb Temperature Range {deltaC}
    DefaultMultipliers,      !- Dry-Bulb Temperature Range Modifier Type
    ,                        !- Dry-Bulb Temperature Range Modifier Day Schedule Name
    Enthalpy,                !- Humidity Condition Type
    ,                        !- Wetbulb or DewPoint at Maximum Dry-Bulb {C}
    ,                        !- Humidity Condition Day Schedule Name
    ,                        !- Humidity Ratio at Maximum Dry-Bulb {kgWater/kgDryAir}
    94500,                   !- Enthalpy at Maximum Dry-Bulb {J/kg}
    ,                        !- Daily Wet-Bulb Temperature Range {deltaC}
    101109,                  !- Barometric Pressure {Pa}
    3.4,                     !- Wind Speed {m/s}
    220,                     !- Wind Direction {deg}
    No,                      !- Rain Indicator
    No,                      !- Snow Indicator
    No,                      !- Daylight Saving Time Indicator
    ASHRAETau,               !- Solar Model Indicator
    ,                        !- Beam Solar Day Schedule Name
    ,                        !- Diffuse Solar Day Schedule Name
    0.685,                   !- ASHRAE Clear Sky Optical Depth for Beam Irradiance (taub) {dimensionless}
    1.554,                   !- ASHRAE Clear Sky Optical Depth for Diffuse Irradiance (taud) {dimensionless}
    ,                        !- Sky Clearness
    ,                        !- Maximum Number Warmup Days
    FullResetAtBeginEnvironment;  !- Begin Environment Reset Mode

SizingPeriod:DesignDay,
    SHENZHEN Ann Clg .4% Condns WB=>MDB,  !- Name
    7,                       !- Month
    21,                      !- Day of Month
    SummerDesignDay,         !- Day Type
    31,                      !- Maximum Dry-Bulb Temperature {C}
    5.3,                     !- Daily Dry-Bulb Temperature Range {deltaC}
    DefaultMultipliers,      !- Dry-Bulb Temperature Range Modifier Type
    ,                        !- Dry-Bulb Temperature Range Modifier Day Schedule Name
    Wetbulb,                 !- Humidity Condition Type
    28.8,                    !- Wetbulb or DewPoint at Maximum Dry-Bulb {C}
    ,                        !- Humidity Condition Day Schedule Name
    ,                        !- Humidity Ratio at Maximum Dry-Bulb {kgWater/kgDryAir}
    ,                        !- Enthalpy at Maximum Dry-Bulb {J/kg}
    ,                        !- Daily Wet-Bulb Temperature Range {deltaC}
    101109,                  !- Barometric Pressure {Pa}
    3.4,                     !- Wind Speed {m/s}
    220,                     !- Wind Direction {deg}
    No,                      !- Rain Indicator
    No,                      !- Snow Indicator
    No,                      !- Daylight Saving Time Indicator
    ASHRAETau,               !- Solar Model Indicator
    ,                        !- Beam Solar Day Schedule Name
    ,                        !- Diffuse Solar Day Schedule Name
    0.685,                   !- ASHRAE Clear Sky Optical Depth for Beam Irradiance (taub) {dimensionless}
    1.554,                   !- ASHRAE Clear Sky Optical Depth for Diffuse Irradiance (taud) {dimensionless}
    ,                        !- Sky Clearness
    ,                        !- Maximum Number Warmup Days
    FullResetAtBeginEnvironment;  !- Begin Environment Reset Mode

SizingPeriod:DesignDay,
    SHENZHEN Ann Htg 99.6% Condns DB,  !- Name
    1,                       !- Month
    21,                      !- Day of Month
    WinterDesignDay,         !- Day Type
    6.9,                     !- Maximum Dry-Bulb Temperature {C}
    0,                       !- Daily Dry-Bulb Temperature Range {deltaC}
    DefaultMultipliers,      !- Dry-Bulb Temperature Range Modifier Type
    ,                        !- Dry-Bulb Temperature Range Modifier Day Schedule Name
    Wetbulb,                 !- Humidity Condition Type
    6.9,                     !- Wetbulb or DewPoint at Maximum Dry-Bulb {C}
    ,                        !- Humidity Condition Day Schedule Name
    ,                        !- Humidity Ratio at Maximum Dry-Bulb {kgWater/kgDryAir}
    ,                        !- Enthalpy at Maximum Dry-Bulb {J/kg}
    ,                        !- Daily Wet-Bulb Temperature Range {deltaC}
    101109,                  !- Barometric Pressure {Pa}
    4.5,                     !- Wind Speed {m/s}
    20,                      !- Wind Direction {deg}
    No,                      !- Rain Indicator
    No,                      !- Snow Indicator
    No,                      !- Daylight Saving Time Indicator
    ASHRAEClearSky,          !- Solar Model Indicator
    ,                        !- Beam Solar Day Schedule Name
    ,                        !- Diffuse Solar Day Schedule Name
    ,                        !- ASHRAE Clear Sky Optical Depth for Beam Irradiance (taub) {dimensionless}
    ,                        !- ASHRAE Clear Sky Optical Depth for Diffuse Irradiance (taud) {dimensionless}
    0,                       !- Sky Clearness
    ,                        !- Maximum Number Warmup Days
    FullResetAtBeginEnvironment;  !- Begin Environment Reset Mode

SizingPeriod:DesignDay,
    SHENZHEN Ann Htg Wind 99.6% Condns WS=>MCDB,  !- Name
    1,                       !- Month
    21,                      !- Day of Month
    WinterDesignDay,         !- Day Type
    11.9,                    !- Maximum Dry-Bulb Temperature {C}
    0,                       !- Daily Dry-Bulb Temperature Range {deltaC}
    DefaultMultipliers,      !- Dry-Bulb Temperature Range Modifier Type
    ,                        !- Dry-Bulb Temperature Range Modifier Day Schedule Name
    Wetbulb,                 !- Humidity Condition Type
    11.9,                    !- Wetbulb or DewPoint at Maximum Dry-Bulb {C}
    ,                        !- Humidity Condition Day Schedule Name
    ,                        !- Humidity Ratio at Maximum Dry-Bulb {kgWater/kgDryAir}
    ,                        !- Enthalpy at Maximum Dry-Bulb {J/kg}
    ,                        !- Daily Wet-Bulb Temperature Range {deltaC}
    101109,                  !- Barometric Pressure {Pa}
    8.4,                     !- Wind Speed {m/s}
    20,                      !- Wind Direction {deg}
    No,                      !- Rain Indicator
    No,                      !- Snow Indicator
    No,                      !- Daylight Saving Time Indicator
    ASHRAEClearSky,          !- Solar Model Indicator
    ,                        !- Beam Solar Day Schedule Name
    ,                        !- Diffuse Solar Day Schedule Name
    ,                        !- ASHRAE Clear Sky Optical Depth for Beam Irradiance (taub) {dimensionless}
    ,                        !- ASHRAE Clear Sky Optical Depth for Diffuse Irradiance (taud) {dimensionless}
    0,                       !- Sky Clearness
    ,                        !- Maximum Number Warmup Days
    FullResetAtBeginEnvironment;  !- Begin Environment Reset Mode

SizingPeriod:DesignDay,
    SHENZHEN Ann Hum_n 99.6% Condns DP=>MCDB,  !- Name
    1,                       !- Month
    21,                      !- Day of Month
    WinterDesignDay,         !- Day Type
    12.3,                    !- Maximum Dry-Bulb Temperature {C}
    0,                       !- Daily Dry-Bulb Temperature Range {deltaC}
    DefaultMultipliers,      !- Dry-Bulb Temperature Range Modifier Type
    ,                        !- Dry-Bulb Temperature Range Modifier Day Schedule Name
    Dewpoint,                !- Humidity Condition Type
    -5.1,                    !- Wetbulb or DewPoint at Maximum Dry-Bulb {C}
    ,                        !- Humidity Condition Day Schedule Name
    ,                        !- Humidity Ratio at Maximum Dry-Bulb {kgWater/kgDryAir}
    ,                        !- Enthalpy at Maximum Dry-Bulb {J/kg}
    ,                        !- Daily Wet-Bulb Temperature Range {deltaC}
    101109,                  !- Barometric Pressure {Pa}
    4.5,                     !- Wind Speed {m/s}
    20,                      !- Wind Direction {deg}
    No,                      !- Rain Indicator
    No,                      !- Snow Indicator
    No,                      !- Daylight Saving Time Indicator
    ASHRAEClearSky,          !- Solar Model Indicator
    ,                        !- Beam Solar Day Schedule Name
    ,                        !- Diffuse Solar Day Schedule Name
    ,                        !- ASHRAE Clear Sky Optical Depth for Beam Irradiance (taub) {dimensionless}
    ,                        !- ASHRAE Clear Sky Optical Depth for Diffuse Irradiance (taud) {dimensionless}
    0,                       !- Sky Clearness
    ,                        !- Maximum Number Warmup Days
    FullResetAtBeginEnvironment;  !- Begin Environment Reset Mode


!-   ===========  ALL OBJECTS IN CLASS: RUNPERIOD ===========

RunPeriod,
    Run Period 1,            !- Name
    1,                       !- Begin Month
    1,                       !- Begin Day of Month
    2006,                    !- Begin Year
    12,                      !- End Month
    31,                      !- End Day of Month
    2006,                    !- End Year
    Sunday,                  !- Day of Week for Start Day
    No,                      !- Use Weather File Holidays and Special Days
    No,                      !- Use Weather File Daylight Saving Period
    No,                      !- Apply Weekend Holiday Rule
    Yes,                     !- Use Weather File Rain Indicators
    Yes;                     !- Use Weather File Snow Indicators


!-   ===========  ALL OBJECTS IN CLASS: SITE:WATERMAINSTEMPERATURE ===========

Site:WaterMainsTemperature,
    CorrelationFromWeatherFile;  !- Calculation Method


!-   ===========  ALL OBJECTS IN CLASS: SCHEDULETYPELIMITS ===========

ScheduleTypeLimits,
    Fractional,              !- Name
    0,                       !- Lower Limit Value
    1,                       !- Upper Limit Value
    Continuous,              !- Numeric Type
    dimensionless;           !- Unit Type

ScheduleTypeLimits,
    Activity Level,          !- Name
    0,                       !- Lower Limit Value
    ,                        !- Upper Limit Value
    Continuous,              !- Numeric Type
    activitylevel;           !- Unit Type

ScheduleTypeLimits,
    Room_4_8151d354 Thermostat Schedule Type Limits,  !- Name
    0,                       !- Lower Limit Value
    4,                       !- Upper Limit Value
    DISCRETE;                !- Numeric Type

ScheduleTypeLimits,
    Temperature,             !- Name
    -273.15,                 !- Lower Limit Value
    ,                        !- Upper Limit Value
    Continuous,              !- Numeric Type
    temperature;             !- Unit Type


!-   ===========  ALL OBJECTS IN CLASS: SCHEDULE:DAY:INTERVAL ===========

Schedule:Day:Interval,
    OfficeMedium BLDG_LIGHT_SCH_2013_Sun,  !- Name
    Fractional,              !- Schedule Type Limits Name
    No,                      !- Interpolate to Timestep
    06:00,                   !- Time 1 {hh:mm}
    0.05,                    !- Value Until Time 1
    18:00,                   !- Time 2 {hh:mm}
    0.04311628,              !- Value Until Time 2
    24:00,                   !- Time 3 {hh:mm}
    0.05;                    !- Value Until Time 3

Schedule:Day:Interval,
    Schedule Day 9,          !- Name
    Fractional,              !- Schedule Type Limits Name
    No,                      !- Interpolate to Timestep
    05:00,                   !- Time 1 {hh:mm}
    0.05,                    !- Value Until Time 1
    06:00,                   !- Time 2 {hh:mm}
    0.1,                     !- Value Until Time 2
    07:00,                   !- Time 3 {hh:mm}
    0.08623256,              !- Value Until Time 3
    08:00,                   !- Time 4 {hh:mm}
    0.25869768,              !- Value Until Time 4
    17:00,                   !- Time 5 {hh:mm}
    0.77609304,              !- Value Until Time 5
    18:00,                   !- Time 6 {hh:mm}
    0.4311628,               !- Value Until Time 6
    20:00,                   !- Time 7 {hh:mm}
    0.25869768,              !- Value Until Time 7
    22:00,                   !- Time 8 {hh:mm}
    0.17246512,              !- Value Until Time 8
    23:00,                   !- Time 9 {hh:mm}
    0.08623256,              !- Value Until Time 9
    24:00,                   !- Time 10 {hh:mm}
    0.04311628;              !- Value Until Time 10

Schedule:Day:Interval,
    Schedule Day 10,         !- Name
    Fractional,              !- Schedule Type Limits Name
    No,                      !- Interpolate to Timestep
    06:00,                   !- Time 1 {hh:mm}
    0.05,                    !- Value Until Time 1
    08:00,                   !- Time 2 {hh:mm}
    0.08623256,              !- Value Until Time 2
    12:00,                   !- Time 3 {hh:mm}
    0.25869768,              !- Value Until Time 3
    17:00,                   !- Time 4 {hh:mm}
    0.12934884,              !- Value Until Time 4
    19:00,                   !- Time 5 {hh:mm}
    0.04311628,              !- Value Until Time 5
    24:00,                   !- Time 6 {hh:mm}
    0.05;                    !- Value Until Time 6

Schedule:Day:Interval,
    OfficeMedium BLDG_LIGHT_SCH_2013_SmrDsn 1,  !- Name
    Fractional,              !- Schedule Type Limits Name
    No,                      !- Interpolate to Timestep
    24:00,                   !- Time 1 {hh:mm}
    1;                       !- Value Until Time 1

Schedule:Day:Interval,
    OfficeMedium BLDG_LIGHT_SCH_2013_WntrDsn 1,  !- Name
    Fractional,              !- Schedule Type Limits Name
    No,                      !- Interpolate to Timestep
    24:00,                   !- Time 1 {hh:mm}
    0;                       !- Value Until Time 1

Schedule:Day:Interval,
    OfficeMedium BLDG_LIGHT_SCH_2013_Sat 1,  !- Name
    Fractional,              !- Schedule Type Limits Name
    No,                      !- Interpolate to Timestep
    06:00,                   !- Time 1 {hh:mm}
    0.05,                    !- Value Until Time 1
    08:00,                   !- Time 2 {hh:mm}
    0.08623256,              !- Value Until Time 2
    12:00,                   !- Time 3 {hh:mm}
    0.25869768,              !- Value Until Time 3
    17:00,                   !- Time 4 {hh:mm}
    0.12934884,              !- Value Until Time 4
    19:00,                   !- Time 5 {hh:mm}
    0.04311628,              !- Value Until Time 5
    24:00,                   !- Time 6 {hh:mm}
    0.05;                    !- Value Until Time 6

Schedule:Day:Interval,
    OfficeMedium BLDG_OCC_SCH_Default,  !- Name
    Fractional,              !- Schedule Type Limits Name
    No,                      !- Interpolate to Timestep
    06:00,                   !- Time 1 {hh:mm}
    0,                       !- Value Until Time 1
    18:00,                   !- Time 2 {hh:mm}
    0.05,                    !- Value Until Time 2
    24:00,                   !- Time 3 {hh:mm}
    0;                       !- Value Until Time 3

Schedule:Day:Interval,
    Schedule Day 11,         !- Name
    Fractional,              !- Schedule Type Limits Name
    No,                      !- Interpolate to Timestep
    06:00,                   !- Time 1 {hh:mm}
    0,                       !- Value Until Time 1
    07:00,                   !- Time 2 {hh:mm}
    0.1,                     !- Value Until Time 2
    08:00,                   !- Time 3 {hh:mm}
    0.2,                     !- Value Until Time 3
    12:00,                   !- Time 4 {hh:mm}
    0.95,                    !- Value Until Time 4
    13:00,                   !- Time 5 {hh:mm}
    0.5,                     !- Value Until Time 5
    17:00,                   !- Time 6 {hh:mm}
    0.95,                    !- Value Until Time 6
    18:00,                   !- Time 7 {hh:mm}
    0.3,                     !- Value Until Time 7
    22:00,                   !- Time 8 {hh:mm}
    0.1,                     !- Value Until Time 8
    24:00,                   !- Time 9 {hh:mm}
    0.05;                    !- Value Until Time 9

Schedule:Day:Interval,
    Schedule Day 12,         !- Name
    Fractional,              !- Schedule Type Limits Name
    No,                      !- Interpolate to Timestep
    06:00,                   !- Time 1 {hh:mm}
    0,                       !- Value Until Time 1
    08:00,                   !- Time 2 {hh:mm}
    0.1,                     !- Value Until Time 2
    12:00,                   !- Time 3 {hh:mm}
    0.3,                     !- Value Until Time 3
    17:00,                   !- Time 4 {hh:mm}
    0.1,                     !- Value Until Time 4
    19:00,                   !- Time 5 {hh:mm}
    0.05,                    !- Value Until Time 5
    24:00,                   !- Time 6 {hh:mm}
    0;                       !- Value Until Time 6

Schedule:Day:Interval,
    OfficeMedium BLDG_OCC_SCH_SmrDsn 1,  !- Name
    Fractional,              !- Schedule Type Limits Name
    No,                      !- Interpolate to Timestep
    06:00,                   !- Time 1 {hh:mm}
    0,                       !- Value Until Time 1
    22:00,                   !- Time 2 {hh:mm}
    1,                       !- Value Until Time 2
    24:00,                   !- Time 3 {hh:mm}
    0.05;                    !- Value Until Time 3

Schedule:Day:Interval,
    OfficeMedium BLDG_OCC_SCH_WntrDsn 1,  !- Name
    Fractional,              !- Schedule Type Limits Name
    No,                      !- Interpolate to Timestep
    24:00,                   !- Time 1 {hh:mm}
    0;                       !- Value Until Time 1

Schedule:Day:Interval,
    OfficeMedium BLDG_OCC_SCH_Default 1,  !- Name
    Fractional,              !- Schedule Type Limits Name
    No,                      !- Interpolate to Timestep
    06:00,                   !- Time 1 {hh:mm}
    0,                       !- Value Until Time 1
    18:00,                   !- Time 2 {hh:mm}
    0.05,                    !- Value Until Time 2
    24:00,                   !- Time 3 {hh:mm}
    0;                       !- Value Until Time 3

Schedule:Day:Interval,
    Seated Adult Activity_Day Schedule,  !- Name
    Activity Level,          !- Schedule Type Limits Name
    No,                      !- Interpolate to Timestep
    24:00,                   !- Time 1 {hh:mm}
    120;                     !- Value Until Time 1

Schedule:Day:Interval,
    OfficeMedium BLDG_EQUIP_SCH_2013_Sun,  !- Name
    Fractional,              !- Schedule Type Limits Name
    No,                      !- Interpolate to Timestep
    06:00,                   !- Time 1 {hh:mm}
    0.2307553806,            !- Value Until Time 1
    18:00,                   !- Time 2 {hh:mm}
    0.288107175,             !- Value Until Time 2
    24:00,                   !- Time 3 {hh:mm}
    0.2307553806;            !- Value Until Time 3

Schedule:Day:Interval,
    Schedule Day 5,          !- Name
    Fractional,              !- Schedule Type Limits Name
    No,                      !- Interpolate to Timestep
    06:00,                   !- Time 1 {hh:mm}
    0.3076738408,            !- Value Until Time 1
    08:00,                   !- Time 2 {hh:mm}
    0.381234796,             !- Value Until Time 2
    12:00,                   !- Time 3 {hh:mm}
    0.857778291,             !- Value Until Time 3
    13:00,                   !- Time 4 {hh:mm}
    0.762469592,             !- Value Until Time 4
    17:00,                   !- Time 5 {hh:mm}
    0.857778291,             !- Value Until Time 5
    18:00,                   !- Time 6 {hh:mm}
    0.476543495,             !- Value Until Time 6
    24:00,                   !- Time 7 {hh:mm}
    0.381234796;             !- Value Until Time 7

Schedule:Day:Interval,
    Schedule Day 6,          !- Name
    Fractional,              !- Schedule Type Limits Name
    No,                      !- Interpolate to Timestep
    06:00,                   !- Time 1 {hh:mm}
    0.2307553806,            !- Value Until Time 1
    08:00,                   !- Time 2 {hh:mm}
    0.381234796,             !- Value Until Time 2
    12:00,                   !- Time 3 {hh:mm}
    0.476543495,             !- Value Until Time 3
    17:00,                   !- Time 4 {hh:mm}
    0.3335804465,            !- Value Until Time 4
    19:00,                   !- Time 5 {hh:mm}
    0.285926097,             !- Value Until Time 5
    24:00,                   !- Time 6 {hh:mm}
    0.2307553806;            !- Value Until Time 6

Schedule:Day:Interval,
    OfficeMedium BLDG_EQUIP_SCH_2013_SmrDsn 1,  !- Name
    Fractional,              !- Schedule Type Limits Name
    No,                      !- Interpolate to Timestep
    24:00,                   !- Time 1 {hh:mm}
    1;                       !- Value Until Time 1

Schedule:Day:Interval,
    OfficeMedium BLDG_EQUIP_SCH_2013_WntrDsn 1,  !- Name
    Fractional,              !- Schedule Type Limits Name
    No,                      !- Interpolate to Timestep
    24:00,                   !- Time 1 {hh:mm}
    0;                       !- Value Until Time 1

Schedule:Day:Interval,
    OfficeMedium BLDG_EQUIP_SCH_2013_Sat 1,  !- Name
    Fractional,              !- Schedule Type Limits Name
    No,                      !- Interpolate to Timestep
    06:00,                   !- Time 1 {hh:mm}
    0.2307553806,            !- Value Until Time 1
    08:00,                   !- Time 2 {hh:mm}
    0.381234796,             !- Value Until Time 2
    12:00,                   !- Time 3 {hh:mm}
    0.476543495,             !- Value Until Time 3
    17:00,                   !- Time 4 {hh:mm}
    0.3335804465,            !- Value Until Time 4
    19:00,                   !- Time 5 {hh:mm}
    0.285926097,             !- Value Until Time 5
    24:00,                   !- Time 6 {hh:mm}
    0.2307553806;            !- Value Until Time 6

Schedule:Day:Interval,
    OfficeMedium HTGSETP_SCH_YES_OPTIMUM_Default,  !- Name
    Temperature,             !- Schedule Type Limits Name
    No,                      !- Interpolate to Timestep
    24:00,                   !- Time 1 {hh:mm}
    15.6;                    !- Value Until Time 1

Schedule:Day:Interval,
    Schedule Day 3,          !- Name
    Temperature,             !- Schedule Type Limits Name
    No,                      !- Interpolate to Timestep
    05:00,                   !- Time 1 {hh:mm}
    15.6,                    !- Value Until Time 1
    06:00,                   !- Time 2 {hh:mm}
    17.8,                    !- Value Until Time 2
    07:00,                   !- Time 3 {hh:mm}
    20,                      !- Value Until Time 3
    22:00,                   !- Time 4 {hh:mm}
    21,                      !- Value Until Time 4
    24:00,                   !- Time 5 {hh:mm}
    15.6;                    !- Value Until Time 5

Schedule:Day:Interval,
    Schedule Day 4,          !- Name
    Temperature,             !- Schedule Type Limits Name
    No,                      !- Interpolate to Timestep
    05:00,                   !- Time 1 {hh:mm}