!- Windows Line endings 

Version,
    23.2;                     !- Version Identifier

SimulationControl,
    Yes,                      !- Do Zone Sizing Calculation
    Yes,                      !- Do System Sizing Calculation
    Yes,                      !- Do Plant Sizing Calculation
    No,                       !- Run Simulation for Sizing Periods
    Yes,                      !- Run Simulation for Weather File Run Periods
    No,                       !- Do HVAC Sizing Simulation for Sizing Periods
    ;                         !- Maximum Number of HVAC Sizing Simulation Passes

Building,
    NoShadeModel,             !- Name
    0,                        !- North Axis
    City,                     !- Terrain
    ,                         !- Loads Convergence Tolerance Value
    ,                         !- Temperature Convergence Tolerance Value
    FullExteriorWithReflections,    !- Solar Distribution
    ,                         !- Maximum Number of Warmup Days
    ;                         !- Minimum Number of Warmup Days

ShadowCalculation,
    PolygonClipping,          !- Shading Calculation Method
    Periodic,                 !- Shading Calculation Update Frequency Method
    30,                       !- Shading Calculation Update Frequency
    15000,                    !- Maximum Figures in Shadow Overlap Calculations
    SutherlandHodgman,        !- Polygon Clipping Algorithm
    512,                      !- Pixel Counting Resolution
    SimpleSkyDiffuseModeling,    !- Sky Diffuse Modeling Algorithm
    No,                       !- Output External Shading Calculation Results
    No,                       !- Disable SelfShading Within Shading Zone Groups
    No;                       !- Disable SelfShading From Shading Zone Groups to Other Zones

HeatBalanceAlgorithm,
    ConductionTransferFunction,    !- Algorithm
    200;                      !- Surface Temperature Upper Limit

Timestep,
    6;                        !- Number of Timesteps per Hour

Site:Location,
    Site 1,                   !- Name
    0,                        !- Latitude
    0,                        !- Longitude
    0,                        !- Time Zone
    0;                        !- Elevation

SizingPeriod:DesignDay,
    SHENZHEN Ann Clg .4% Condns DB=>MWB,    !- Name
    7,                        !- Month
    21,                       !- Day of Month
    SummerDesignDay,          !- Day Type
    33.8,                     !- Maximum DryBulb Temperature
    5.3,                      !- Daily DryBulb Temperature Range
    DefaultMultipliers,       !- DryBulb Temperature Range Modifier Type
    ,                         !- DryBulb Temperature Range Modifier Day Schedule Name
    Wetbulb,                  !- Humidity Condition Type
    26.5,                     !- Wetbulb or DewPoint at Maximum DryBulb
    ,                         !- Humidity Condition Day Schedule Name
    ,                         !- Humidity Ratio at Maximum DryBulb
    ,                         !- Enthalpy at Maximum DryBulb
    ,                         !- Daily WetBulb Temperature Range
    101109,                   !- Barometric Pressure
    3.4,                      !- Wind Speed
    220,                      !- Wind Direction
    No,                       !- Rain Indicator
    No,                       !- Snow Indicator
    No,                       !- Daylight Saving Time Indicator
    ASHRAETau,                !- Solar Model Indicator
    ,                         !- Beam Solar Day Schedule Name
    ,                         !- Diffuse Solar Day Schedule Name
    0.685,                    !- ASHRAE Clear Sky Optical Depth for Beam Irradiance taub
    1.554,                    !- ASHRAE Clear Sky Optical Depth for Diffuse Irradiance taud
    ,                         !- Sky Clearness
    ,                         !- Maximum Number Warmup Days
    FullResetAtBeginEnvironment;    !- Begin Environment Reset Mode

SizingPeriod:DesignDay,
    SHENZHEN Ann Clg .4% Condns DP=>MDB,    !- Name
    7,                        !- Month
    21,                       !- Day of Month
    SummerDesignDay,          !- Day Type
    30.2,                     !- Maximum DryBulb Temperature
    5.3,                      !- Daily DryBulb Temperature Range
    DefaultMultipliers,       !- DryBulb Temperature Range Modifier Type
    ,                         !- DryBulb Temperature Range Modifier Day Schedule Name
    Dewpoint,                 !- Humidity Condition Type
    28.2,                     !- Wetbulb or DewPoint at Maximum DryBulb
    ,                         !- Humidity Condition Day Schedule Name
    ,                         !- Humidity Ratio at Maximum DryBulb
    ,                         !- Enthalpy at Maximum DryBulb
    ,                         !- Daily WetBulb Temperature Range
    101109,                   !- Barometric Pressure
    3.4,                      !- Wind Speed
    220,                      !- Wind Direction
    No,                       !- Rain Indicator
    No,                       !- Snow Indicator
    No,                       !- Daylight Saving Time Indicator
    ASHRAETau,                !- Solar Model Indicator
    ,                         !- Beam Solar Day Schedule Name
    ,                         !- Diffuse Solar Day Schedule Name
    0.685,                    !- ASHRAE Clear Sky Optical Depth for Beam Irradiance taub
    1.554,                    !- ASHRAE Clear Sky Optical Depth for Diffuse Irradiance taud
    ,                         !- Sky Clearness
    ,                         !- Maximum Number Warmup Days
    FullResetAtBeginEnvironment;    !- Begin Environment Reset Mode

SizingPeriod:DesignDay,
    SHENZHEN Ann Clg .4% Condns Enth=>MDB,    !- Name
    7,                        !- Month
    21,                       !- Day of Month
    SummerDesignDay,          !- Day Type
    31.3,                     !- Maximum DryBulb Temperature
    5.3,                      !- Daily DryBulb Temperature Range
    DefaultMultipliers,       !- DryBulb Temperature Range Modifier Type
    ,                         !- DryBulb Temperature Range Modifier Day Schedule Name
    Enthalpy,                 !- Humidity Condition Type
    ,                         !- Wetbulb or DewPoint at Maximum DryBulb
    ,                         !- Humidity Condition Day Schedule Name
    ,                         !- Humidity Ratio at Maximum DryBulb
    94500,                    !- Enthalpy at Maximum DryBulb
    ,                         !- Daily WetBulb Temperature Range
    101109,                   !- Barometric Pressure
    3.4,                      !- Wind Speed
    220,                      !- Wind Direction
    No,                       !- Rain Indicator
    No,                       !- Snow Indicator
    No,                       !- Daylight Saving Time Indicator
    ASHRAETau,                !- Solar Model Indicator
    ,                         !- Beam Solar Day Schedule Name
    ,                         !- Diffuse Solar Day Schedule Name
    0.685,                    !- ASHRAE Clear Sky Optical Depth for Beam Irradiance taub
    1.554,                    !- ASHRAE Clear Sky Optical Depth for Diffuse Irradiance taud
    ,                         !- Sky Clearness
    ,                         !- Maximum Number Warmup Days
    FullResetAtBeginEnvironment;    !- Begin Environment Reset Mode

SizingPeriod:DesignDay,
    SHENZHEN Ann Clg .4% Condns WB=>MDB,    !- Name
    7,                        !- Month
    21,                       !- Day of Month
    SummerDesignDay,          !- Day Type
    31,                       !- Maximum DryBulb Temperature
    5.3,                      !- Daily DryBulb Temperature Range
    DefaultMultipliers,       !- DryBulb Temperature Range Modifier Type
    ,                         !- DryBulb Temperature Range Modifier Day Schedule Name
    Wetbulb,                  !- Humidity Condition Type
    28.8,                     !- Wetbulb or DewPoint at Maximum DryBulb
    ,                         !- Humidity Condition Day Schedule Name
    ,                         !- Humidity Ratio at Maximum DryBulb
    ,                         !- Enthalpy at Maximum DryBulb
    ,                         !- Daily WetBulb Temperature Range
    101109,                   !- Barometric Pressure
    3.4,                      !- Wind Speed
    220,                      !- Wind Direction
    No,                       !- Rain Indicator
    No,                       !- Snow Indicator
    No,                       !- Daylight Saving Time Indicator
    ASHRAETau,                !- Solar Model Indicator
    ,                         !- Beam Solar Day Schedule Name
    ,                         !- Diffuse Solar Day Schedule Name
    0.685,                    !- ASHRAE Clear Sky Optical Depth for Beam Irradiance taub
    1.554,                    !- ASHRAE Clear Sky Optical Depth for Diffuse Irradiance taud
    ,                         !- Sky Clearness
    ,                         !- Maximum Number Warmup Days
    FullResetAtBeginEnvironment;    !- Begin Environment Reset Mode

SizingPeriod:DesignDay,
    SHENZHEN Ann Htg 99.6% Condns DB,    !- Name
    1,                        !- Month
    21,                       !- Day of Month
    WinterDesignDay,          !- Day Type
    6.9,                      !- Maximum DryBulb Temperature
    0,                        !- Daily DryBulb Temperature Range
    DefaultMultipliers,       !- DryBulb Temperature Range Modifier Type
    ,                         !- DryBulb Temperature Range Modifier Day Schedule Name
    Wetbulb,                  !- Humidity Condition Type
    6.9,                      !- Wetbulb or DewPoint at Maximum DryBulb
    ,                         !- Humidity Condition Day Schedule Name
    ,                         !- Humidity Ratio at Maximum DryBulb
    ,                         !- Enthalpy at Maximum DryBulb
    ,                         !- Daily WetBulb Temperature Range
    101109,                   !- Barometric Pressure
    4.5,                      !- Wind Speed
    20,                       !- Wind Direction
    No,                       !- Rain Indicator
    No,                       !- Snow Indicator
    No,                       !- Daylight Saving Time Indicator
    ASHRAEClearSky,           !- Solar Model Indicator
    ,                         !- Beam Solar Day Schedule Name
    ,                         !- Diffuse Solar Day Schedule Name
    ,                         !- ASHRAE Clear Sky Optical Depth for Beam Irradiance taub
    ,                         !- ASHRAE Clear Sky Optical Depth for Diffuse Irradiance taud
    0,                        !- Sky Clearness
    ,                         !- Maximum Number Warmup Days
    FullResetAtBeginEnvironment;    !- Begin Environment Reset Mode

SizingPeriod:DesignDay,
    SHENZHEN Ann Htg Wind 99.6% Condns WS=>MCDB,    !- Name
    1,                        !- Month
    21,                       !- Day of Month
    WinterDesignDay,          !- Day Type
    11.9,                     !- Maximum DryBulb Temperature
    0,                        !- Daily DryBulb Temperature Range
    DefaultMultipliers,       !- DryBulb Temperature Range Modifier Type
    ,                         !- DryBulb Temperature Range Modifier Day Schedule Name
    Wetbulb,                  !- Humidity Condition Type
    11.9,                     !- Wetbulb or DewPoint at Maximum DryBulb
    ,                         !- Humidity Condition Day Schedule Name
    ,                         !- Humidity Ratio at Maximum DryBulb
    ,                         !- Enthalpy at Maximum DryBulb
    ,                         !- Daily WetBulb Temperature Range
    101109,                   !- Barometric Pressure
    8.4,                      !- Wind Speed
    20,                       !- Wind Direction
    No,                       !- Rain Indicator
    No,                       !- Snow Indicator
    No,                       !- Daylight Saving Time Indicator
    ASHRAEClearSky,           !- Solar Model Indicator
    ,                         !- Beam Solar Day Schedule Name
    ,                         !- Diffuse Solar Day Schedule Name
    ,                         !- ASHRAE Clear Sky Optical Depth for Beam Irradiance taub
    ,                         !- ASHRAE Clear Sky Optical Depth for Diffuse Irradiance taud
    0,                        !- Sky Clearness
    ,                         !- Maximum Number Warmup Days
    FullResetAtBeginEnvironment;    !- Begin Environment Reset Mode

SizingPeriod:DesignDay,
    SHENZHEN Ann Hum_n 99.6% Condns DP=>MCDB,    !- Name
    1,                        !- Month
    21,                       !- Day of Month
    WinterDesignDay,          !- Day Type
    12.3,                     !- Maximum DryBulb Temperature
    0,                        !- Daily DryBulb Temperature Range
    DefaultMultipliers,       !- DryBulb Temperature Range Modifier Type
    ,                         !- DryBulb Temperature Range Modifier Day Schedule Name
    Dewpoint,                 !- Humidity Condition Type
    -5.1,                     !- Wetbulb or DewPoint at Maximum DryBulb
    ,                         !- Humidity Condition Day Schedule Name
    ,                         !- Humidity Ratio at Maximum DryBulb
    ,                         !- Enthalpy at Maximum DryBulb
    ,                         !- Daily WetBulb Temperature Range
    101109,                   !- Barometric Pressure
    4.5,                      !- Wind Speed
    20,                       !- Wind Direction
    No,                       !- Rain Indicator
    No,                       !- Snow Indicator
    No,                       !- Daylight Saving Time Indicator
    ASHRAEClearSky,           !- Solar Model Indicator
    ,                         !- Beam Solar Day Schedule Name
    ,                         !- Diffuse Solar Day Schedule Name
    ,                         !- ASHRAE Clear Sky Optical Depth for Beam Irradiance taub
    ,                         !- ASHRAE Clear Sky Optical Depth for Diffuse Irradiance taud
    0,                        !- Sky Clearness
    ,                         !- Maximum Number Warmup Days
    FullResetAtBeginEnvironment;    !- Begin Environment Reset Mode

RunPeriod,
    Run Period 1,             !- Name
    1,                        !- Begin Month
    1,                        !- Begin Day of Month
    2006,                     !- Begin Year
    12,                       !- End Month
    31,                       !- End Day of Month
    2006,                     !- End Year
    Sunday,                   !- Day of Week for Start Day
    No,                       !- Use Weather File Holidays and Special Days
    No,                       !- Use Weather File Daylight Saving Period
    No,                       !- Apply Weekend Holiday Rule
    Yes,                      !- Use Weather File Rain Indicators
    Yes;                      !- Use Weather File Snow Indicators

Site:WaterMainsTemperature,
    CorrelationFromWeatherFile;    !- Calculation Method

ScheduleTypeLimits,
    Fractional,               !- Name
    0,                        !- Lower Limit Value
    1,                        !- Upper Limit Value
    Continuous,               !- Numeric Type
    dimensionless;            !- Unit Type

ScheduleTypeLimits,
    Activity Level,           !- Name
    0,                        !- Lower Limit Value
    ,                         !- Upper Limit Value
    Continuous,               !- Numeric Type
    activitylevel;            !- Unit Type

ScheduleTypeLimits,
    Room_1_c36ec948 Thermostat Schedule Type Limits,    !- Name
    0,                        !- Lower Limit Value
    4,                        !- Upper Limit Value
    DISCRETE;                 !- Numeric Type

ScheduleTypeLimits,
    Temperature,              !- Name
    -273.15,                  !- Lower Limit Value
    ,                         !- Upper Limit Value
    Continuous,               !- Numeric Type
    temperature;              !- Unit Type

Schedule:Day:Interval,
    OfficeMedium BLDG_LIGHT_SCH_2013_Sun,    !- Name
    Fractional,               !- Schedule Type Limits Name
    No,                       !- Interpolate to Timestep
    06:00,                    !- Time 1
    0.05,                     !- Value Until Time 1
    18:00,                    !- Time 2
    0.04311628,               !- Value Until Time 2
    24:00,                    !- Time 3
    0.05;                     !- Value Until Time 3

Schedule:Day:Interval,
    Schedule Day 9,           !- Name
    Fractional,               !- Schedule Type Limits Name
    No,                       !- Interpolate to Timestep
    05:00,                    !- Time 1
    0.05,                     !- Value Until Time 1
    06:00,                    !- Time 2
    0.1,                      !- Value Until Time 2
    07:00,                    !- Time 3
    0.08623256,               !- Value Until Time 3
    08:00,                    !- Time 4
    0.25869768,               !- Value Until Time 4
    17:00,                    !- Time 5
    0.77609304,               !- Value Until Time 5
    18:00,                    !- Time 6
    0.4311628,                !- Value Until Time 6
    20:00,                    !- Time 7
    0.25869768,               !- Value Until Time 7
    22:00,                    !- Time 8
    0.17246512,               !- Value Until Time 8
    23:00,                    !- Time 9
    0.08623256,               !- Value Until Time 9
    24:00,                    !- Time 10
    0.04311628;               !- Value Until Time 10

Schedule:Day:Interval,
    Schedule Day 10,          !- Name
    Fractional,               !- Schedule Type Limits Name
    No,                       !- Interpolate to Timestep
    06:00,                    !- Time 1
    0.05,                     !- Value Until Time 1
    08:00,                    !- Time 2
    0.08623256,               !- Value Until Time 2
    12:00,                    !- Time 3
    0.25869768,               !- Value Until Time 3
    17:00,                    !- Time 4
    0.12934884,               !- Value Until Time 4
    19:00,                    !- Time 5
    0.04311628,               !- Value Until Time 5
    24:00,                    !- Time 6
    0.05;                     !- Value Until Time 6

Schedule:Day:Interval,
    OfficeMedium BLDG_LIGHT_SCH_2013_SmrDsn 1,    !- Name
    Fractional,               !- Schedule Type Limits Name
    No,                       !- Interpolate to Timestep
    24:00,                    !- Time 1
    1;                        !- Value Until Time 1

Schedule:Day:Interval,
    OfficeMedium BLDG_LIGHT_SCH_2013_WntrDsn 1,    !- Name
    Fractional,               !- Schedule Type Limits Name
    No,                       !- Interpolate to Timestep
    24:00,                    !- Time 1
    0;                        !- Value Until Time 1

Schedule:Day:Interval,
    OfficeMedium BLDG_LIGHT_SCH_2013_Sat 1,    !- Name
    Fractional,               !- Schedule Type Limits Name
    No,                       !- Interpolate to Timestep
    06:00,                    !- Time 1
    0.05,                     !- Value Until Time 1
    08:00,                    !- Time 2
    0.08623256,               !- Value Until Time 2
    12:00,                    !- Time 3
    0.25869768,               !- Value Until Time 3
    17:00,                    !- Time 4
    0.12934884,               !- Value Until Time 4
    19:00,                    !- Time 5
    0.04311628,               !- Value Until Time 5
    24:00,                    !- Time 6
    0.05;                     !- Value Until Time 6

Schedule:Day:Interval,
    OfficeMedium BLDG_OCC_SCH_Default,    !- Name
    Fractional,               !- Schedule Type Limits Name
    No,                       !- Interpolate to Timestep
    06:00,                    !- Time 1
    0,                        !- Value Until Time 1
    18:00,                    !- Time 2
    0.05,                     !- Value Until Time 2
    24:00,                    !- Time 3
    0;                        !- Value Until Time 3

Schedule:Day:Interval,
    Schedule Day 11,          !- Name
    Fractional,               !- Schedule Type Limits Name
    No,                       !- Interpolate to Timestep
    06:00,                    !- Time 1
    0,                        !- Value Until Time 1
    07:00,                    !- Time 2
    0.1,                      !- Value Until Time 2
    08:00,                    !- Time 3
    0.2,                      !- Value Until Time 3
    12:00,                    !- Time 4
    0.95,                     !- Value Until Time 4
    13:00,                    !- Time 5
    0.5,                      !- Value Until Time 5
    17:00,                    !- Time 6
    0.95,                     !- Value Until Time 6
    18:00,                    !- Time 7
    0.3,                      !- Value Until Time 7
    22:00,                    !- Time 8
    0.1,                      !- Value Until Time 8
    24:00,                    !- Time 9
    0.05;                     !- Value Until Time 9

Schedule:Day:Interval,
    Schedule Day 12,          !- Name
    Fractional,               !- Schedule Type Limits Name
    No,                       !- Interpolate to Timestep
    06:00,                    !- Time 1
    0,                        !- Value Until Time 1
    08:00,                    !- Time 2
    0.1,                      !- Value Until Time 2
    12:00,                    !- Time 3
    0.3,                      !- Value Until Time 3
    17:00,                    !- Time 4
    0.1,                      !- Value Until Time 4
    19:00,                    !- Time 5
    0.05,                     !- Value Until Time 5
    24:00,                    !- Time 6
    0;                        !- Value Until Time 6

Schedule:Day:Interval,
    OfficeMedium BLDG_OCC_SCH_SmrDsn 1,    !- Name
    Fractional,               !- Schedule Type Limits Name
    No,                       !- Interpolate to Timestep
    06:00,                    !- Time 1
    0,                        !- Value Until Time 1
    22:00,                    !- Time 2
    1,                        !- Value Until Time 2
    24:00,                    !- Time 3
    0.05;                     !- Value Until Time 3

Schedule:Day:Interval,
    OfficeMedium BLDG_OCC_SCH_WntrDsn 1,    !- Name
    Fractional,               !- Schedule Type Limits Name
    No,                       !- Interpolate to Timestep
    24:00,                    !- Time 1
    0;                        !- Value Until Time 1

Schedule:Day:Interval,
    OfficeMedium BLDG_OCC_SCH_Default 1,    !- Name
    Fractional,               !- Schedule Type Limits Name
    No,                       !- Interpolate to Timestep
    06:00,                    !- Time 1
    0,                        !- Value Until Time 1
    18:00,                    !- Time 2
    0.05,                     !- Value Until Time 2
    24:00,                    !- Time 3
    0;                        !- Value Until Time 3

Schedule:Day:Interval,
    Seated Adult Activity_Day Schedule,    !- Name
    Activity Level,           !- Schedule Type Limits Name
    No,                       !- Interpolate to Timestep
    24:00,                    !- Time 1
    120;                      !- Value Until Time 1

Schedule:Day:Interval,
    OfficeMedium BLDG_EQUIP_SCH_2013_Sun,    !- Name
    Fractional,               !- Schedule Type Limits Name
    No,                       !- Interpolate to Timestep
    06:00,                    !- Time 1
    0.2307553806,             !- Value Until Time 1
    18:00,                    !- Time 2
    0.288107175,              !- Value Until Time 2
    24:00,                    !- Time 3
    0.2307553806;             !- Value Until Time 3

Schedule:Day:Interval,
    Schedule Day 5,           !- Name
    Fractional,               !- Schedule Type Limits Name
    No,                       !- Interpolate to Timestep
    06:00,                    !- Time 1
    0.3076738408,             !- Value Until Time 1
    08:00,                    !- Time 2
    0.381234796,              !- Value Until Time 2
    12:00,                    !- Time 3
    0.857778291,              !- Value Until Time 3
    13:00,                    !- Time 4
    0.762469592,              !- Value Until Time 4
    17:00,                    !- Time 5
    0.857778291,              !- Value Until Time 5
    18:00,                    !- Time 6
    0.476543495,              !- Value Until Time 6
    24:00,                    !- Time 7
    0.381234796;              !- Value Until Time 7

Schedule:Day:Interval,
    Schedule Day 6,           !- Name
    Fractional,               !- Schedule Type Limits Name
    No,                       !- Interpolate to Timestep
    06:00,                    !- Time 1
    0.2307553806,             !- Value Until Time 1
    08:00,                    !- Time 2
    0.381234796,              !- Value Until Time 2
    12:00,                    !- Time 3
    0.476543495,              !- Value Until Time 3
    17:00,                    !- Time 4
    0.3335804465,             !- Value Until Time 4
    19:00,                    !- Time 5
    0.285926097,              !- Value Until Time 5
    24:00,                    !- Time 6
    0.2307553806;             !- Value Until Time 6

Schedule:Day:Interval,
    OfficeMedium BLDG_EQUIP_SCH_2013_SmrDsn 1,    !- Name
    Fractional,               !- Schedule Type Limits Name
    No,                       !- Interpolate to Timestep
    24:00,                    !- Time 1
    1;                        !- Value Until Time 1

Schedule:Day:Interval,
    OfficeMedium BLDG_EQUIP_SCH_2013_WntrDsn 1,    !- Name
    Fractional,               !- Schedule Type Limits Name
    No,                       !- Interpolate to Timestep
    24:00,                    !- Time 1
    0;                        !- Value Until Time 1

Schedule:Day:Interval,
    OfficeMedium BLDG_EQUIP_SCH_2013_Sat 1,    !- Name
    Fractional,               !- Schedule Type Limits Name
    No,                       !- Interpolate to Timestep
    06:00,                    !- Time 1
    0.2307553806,             !- Value Until Time 1
    08:00,                    !- Time 2
    0.381234796,              !- Value Until Time 2
    12:00,                    !- Time 3
    0.476543495,              !- Value Until Time 3
    17:00,                    !- Time 4
    0.3335804465,             !- Value Until Time 4
    19:00,                    !- Time 5
    0.285926097,              !- Value Until Time 5
    24:00,                    !- Time 6
    0.2307553806;             !- Value Until Time 6

Schedule:Day:Interval,
    OfficeMedium HTGSETP_SCH_YES_OPTIMUM_Default,    !- Name
    Temperature,              !- Schedule Type Limits Name
    No,                       !- Interpolate to Timestep
    24:00,                    !- Time 1
    15.6;                     !- Value Until Time 1

Schedule:Day:Interval,
    Schedule Day 3,           !- Name
    Temperature,              !- Schedule Type Limits Name
    No,                       !- Interpolate to Timestep
    05:00,                    !- Time 1
    15.6,                     !- Value Until Time 1
    06:00,                    !- Time 2
    17.8,                     !- Value Until Time 2
    07:00,                    !- Time 3
    20,                       !- Value Until Time 3
    22:00,                    !- Time 4
    21,                       !- Value Until Time 4
    24:00,                    !- Time 5
    15.6;                     !- Value Until Time 5

Schedule:Day:Interval,
    Schedule Day 4,           !- Name
    Temperature,              !- Schedule Type Limits Name
    No,                       !- Interpolate to Timestep
    05:00,                    !- Time 1
    15.6,                     !- Value Until Time 1
    06:00,                    !- Time 2
    17.8,                     !- Value Until Time 2
    07:00,                    !- Time 3
    20,                       !- Value Until Time 3
    17:00,                    !- Time 4
    21,                       !- Value Until Time 4
    24:00,                    !- Time 5
    15.6;                     !- Value Until Time 5

Schedule:Day:Interval,
    OfficeMedium HTGSETP_SCH_YES_OPTIMUM_Default_SmrDsn 1,    !- Name
    Temperature,              !- Schedule Type Limits Name
    No,                       !- Interpolate to Timestep
    24:00,                    !- Time 1
    15.6;                     !- Value Until Time 1

Schedule:Day:Interval,
    OfficeMedium HTGSETP_SCH_YES_OPTIMUM_WntrDsn 1,    !- Name
    Temperature,              !- Schedule Type Limits Name
    No,                       !- Interpolate to Timestep
    05:00,                    !- Time 1
    15.6,                     !- Value Until Time 1
    06:00,                    !- Time 2
    17.6,                     !- Value Until Time 2
    07:00,                    !- Time 3
    19.6,                     !- Value Until Time 3
    22:00,                    !- Time 4
    21,                       !- Value Until Time 4
    24:00,                    !- Time 5
    15.6;                     !- Value Until Time 5

Schedule:Day:Interval,
    OfficeMedium HTGSETP_SCH_YES_OPTIMUM_Default 1,    !- Name
    Temperature,              !- Schedule Type Limits Name
    No,                       !- Interpolate to Timestep
    24:00,                    !- Time 1
    15.6;                     !- Value Until Time 1

Schedule:Day:Interval,
    OfficeMedium CLGSETP_SCH_YES_OPTIMUM_Default,    !- Name
    Temperature,              !- Schedule Type Limits Name
    No,                       !- Interpolate to Timestep
    24:00,                    !- Time 1
    26.7;                     !- Value Until Time 1

Schedule:Day:Interval,
    Schedule Day 7,           !- Name