
OS:Version,
  {b2a22a36-ba5c-41d7-be27-310f640cf06c}, !- Handle
  3.7.0;                                  !- Version Identifier

OS:Building,
  {fb0df0c0-5c09-4ead-81b1-3ab6eb4b0b1e}, !- Handle
  Simulation_0916_1&#13&#10,              !- Name
  ,                                       !- Building Sector Type
  0,                                      !- North Axis {deg}
  ,                                       !- Nominal Floor to Floor Height {m}
  ,                                       !- Space Type Name
  {cdf4c2ca-1845-4936-9d77-0d1dc31c2bc5}, !- Default Construction Set Name
  ,                                       !- Default Schedule Set Name
  ,                                       !- Standards Number of Stories
  ,                                       !- Standards Number of Above Ground Stories
  ,                                       !- Standards Template
  MediumOffice;                           !- Standards Building Type

OS:Facility,
  {b8542d84-ea26-46df-961d-71d875dab949}; !- Handle

OS:Site,
  {83fbe916-4188-4025-9b1d-1620165fb044}, !- Handle
  Site 1,                                 !- Name
  ,                                       !- Latitude {deg}
  ,                                       !- Longitude {deg}
  ,                                       !- Time Zone {hr}
  ,                                       !- Elevation {m}
  City;                                   !- Terrain

OS:SimulationControl,
  {991117be-ca3d-4ef6-8a11-98aab5d9a171}, !- Handle
  Yes,                                    !- Do Zone Sizing Calculation
  Yes,                                    !- Do System Sizing Calculation
  Yes,                                    !- Do Plant Sizing Calculation
  No,                                     !- Run Simulation for Sizing Periods
  Yes,                                    !- Run Simulation for Weather File Run Periods
  ,                                       !- Loads Convergence Tolerance Value {W}
  ,                                       !- Temperature Convergence Tolerance Value {deltaC}
  FullInteriorAndExteriorWithReflections; !- Solar Distribution

OS:Sizing:Parameters,
  {6bdebca8-3fcd-4893-855b-a274da58b31d}, !- Handle
  1.25,                                   !- Heating Sizing Factor
  1.15;                                   !- Cooling Sizing Factor

OS:Timestep,
  {60390cb7-e478-4825-9f4a-ed670c96181c}, !- Handle
  30;                                     !- Number of Timesteps per Hour

OS:ShadowCalculation,
  {471f871c-f887-4e5d-b70a-ee760d5457ce}, !- Handle
  PolygonClipping,                        !- Shading Calculation Method
  Periodic,                               !- Shading Calculation Update Frequency Method
  30,                                     !- Shading Calculation Update Frequency
  15000,                                  !- Maximum Figures in Shadow Overlap Calculations
  ,                                       !- Polygon Clipping Algorithm
  512,                                    !- Pixel Counting Resolution
  ,                                       !- Sky Diffuse Modeling Algorithm
  No,                                     !- Output External Shading Calculation Results
  No,                                     !- Disable Self-Shading Within Shading Zone Groups
  No;                                     !- Disable Self-Shading From Shading Zone Groups to Other Zones

OS:HeatBalanceAlgorithm,
  {12ee603b-5afe-4818-aa5c-61c00c3dce0d}, !- Handle
  ConductionTransferFunction,             !- Algorithm
  200;                                    !- Surface Temperature Upper Limit {C}

OS:RunPeriod,
  {f3b38e0e-9c29-487d-aeb8-8a3d34ea7703}, !- Handle
  Run Period 1,                           !- Name
  8,                                      !- Begin Month
  20,                                     !- Begin Day of Month
  8,                                      !- End Month
  20,                                     !- End Day of Month
  ,                                       !- Use Weather File Holidays and Special Days
  ,                                       !- Use Weather File Daylight Saving Period
  ,                                       !- Apply Weekend Holiday Rule
  ,                                       !- Use Weather File Rain Indicators
  ,                                       !- Use Weather File Snow Indicators
  ;                                       !- Number of Times Runperiod to be Repeated

OS:LifeCycleCost:Parameters,
  {51b7bdf1-6d0c-4b6b-a552-3a8e4ab11a8c}, !- Handle
  ,                                       !- Analysis Type
  ,                                       !- Discounting Convention
  ,                                       !- Inflation Approach
  ,                                       !- Real Discount Rate
  ,                                       !- Nominal Discount Rate
  ,                                       !- Inflation
  ,                                       !- Base Date Month
  ,                                       !- Base Date Year
  ,                                       !- Service Date Month
  ,                                       !- Service Date Year
  ;                                       !- Length of Study Period in Years

OS:WeatherFile,
  {be282d43-2251-4103-88d6-54dfd6ceb1e8}, !- Handle
  SHENZHEN,                               !- City
  -,                                      !- State Province Region
  CHN,                                    !- Country
  SWERA,                                  !- Data Source
  594930,                                 !- WMO Number
  22.55,                                  !- Latitude {deg}
  114.1,                                  !- Longitude {deg}
  8,                                      !- Time Zone {hr}
  18,                                     !- Elevation {m}
  C:/Users/Lala/AppData/Roaming/ladybug_tools/weather/CHN_Guangdong.Shenzhen.594930_SWERA/CHN_Guangdong.Shenzhen.594930_SWERA.epw, !- Url
  46D93030,                               !- Checksum
  ,                                       !- Start Date Actual Year
  Sunday;                                 !- Start Day of Week

OS:SizingPeriod:DesignDay,
  {5acc2c4d-281f-4ce6-950a-3f547076dd64}, !- Handle
  SHENZHEN Ann Htg 99.6% Condns DB,       !- Name
  6.9,                                    !- Maximum Dry-Bulb Temperature {C}
  0,                                      !- Daily Dry-Bulb Temperature Range {deltaC}
  101109,                                 !- Barometric Pressure {Pa}
  4.5,                                    !- Wind Speed {m/s}
  20,                                     !- Wind Direction {deg}
  0,                                      !- Sky Clearness
  ,                                       !- Rain Indicator
  ,                                       !- Snow Indicator
  21,                                     !- Day of Month
  1,                                      !- Month
  WinterDesignDay,                        !- Day Type
  ,                                       !- Daylight Saving Time Indicator
  Wetbulb,                                !- Humidity Condition Type
  ,                                       !- Humidity Condition Day Schedule Name
  6.9,                                    !- Wetbulb or DewPoint at Maximum Dry-Bulb {C}
  ,                                       !- Humidity Ratio at Maximum Dry-Bulb {kgWater/kgDryAir}
  ,                                       !- Enthalpy at Maximum Dry-Bulb {J/kg}
  ,                                       !- Dry-Bulb Temperature Range Modifier Type
  ,                                       !- Dry-Bulb Temperature Range Modifier Day Schedule Name
  ASHRAEClearSky;                         !- Solar Model Indicator

OS:SizingPeriod:DesignDay,
  {d483a0af-cd97-484f-9c21-cb55fa79ebac}, !- Handle
  SHENZHEN Ann Hum_n 99.6% Condns DP=>MCDB, !- Name
  12.3,                                   !- Maximum Dry-Bulb Temperature {C}
  0,                                      !- Daily Dry-Bulb Temperature Range {deltaC}
  101109,                                 !- Barometric Pressure {Pa}
  4.5,                                    !- Wind Speed {m/s}
  20,                                     !- Wind Direction {deg}
  0,                                      !- Sky Clearness
  ,                                       !- Rain Indicator
  ,                                       !- Snow Indicator
  21,                                     !- Day of Month
  1,                                      !- Month
  WinterDesignDay,                        !- Day Type
  ,                                       !- Daylight Saving Time Indicator
  Dewpoint,                               !- Humidity Condition Type
  ,                                       !- Humidity Condition Day Schedule Name
  -5.1,                                   !- Wetbulb or DewPoint at Maximum Dry-Bulb {C}
  ,                                       !- Humidity Ratio at Maximum Dry-Bulb {kgWater/kgDryAir}
  ,                                       !- Enthalpy at Maximum Dry-Bulb {J/kg}
  ,                                       !- Dry-Bulb Temperature Range Modifier Type
  ,                                       !- Dry-Bulb Temperature Range Modifier Day Schedule Name
  ASHRAEClearSky;                         !- Solar Model Indicator

OS:SizingPeriod:DesignDay,
  {157452a2-3972-4738-86d7-78226edb61d7}, !- Handle
  SHENZHEN Ann Htg Wind 99.6% Condns WS=>MCDB, !- Name
  11.9,                                   !- Maximum Dry-Bulb Temperature {C}
  0,                                      !- Daily Dry-Bulb Temperature Range {deltaC}
  101109,                                 !- Barometric Pressure {Pa}
  8.4,                                    !- Wind Speed {m/s}
  20,                                     !- Wind Direction {deg}
  0,                                      !- Sky Clearness
  ,                                       !- Rain Indicator
  ,                                       !- Snow Indicator
  21,                                     !- Day of Month
  1,                                      !- Month
  WinterDesignDay,                        !- Day Type
  ,                                       !- Daylight Saving Time Indicator
  Wetbulb,                                !- Humidity Condition Type
  ,                                       !- Humidity Condition Day Schedule Name
  11.9,                                   !- Wetbulb or DewPoint at Maximum Dry-Bulb {C}
  ,                                       !- Humidity Ratio at Maximum Dry-Bulb {kgWater/kgDryAir}
  ,                                       !- Enthalpy at Maximum Dry-Bulb {J/kg}
  ,                                       !- Dry-Bulb Temperature Range Modifier Type
  ,                                       !- Dry-Bulb Temperature Range Modifier Day Schedule Name
  ASHRAEClearSky;                         !- Solar Model Indicator

OS:SizingPeriod:DesignDay,
  {daf7d7d7-fd1b-4ea7-b76b-ba9acd291c15}, !- Handle
  SHENZHEN Ann Clg .4% Condns DB=>MWB,    !- Name
  33.8,                                   !- Maximum Dry-Bulb Temperature {C}
  5.3,                                    !- Daily Dry-Bulb Temperature Range {deltaC}
  101109,                                 !- Barometric Pressure {Pa}
  3.4,                                    !- Wind Speed {m/s}
  220,                                    !- Wind Direction {deg}
  ,                                       !- Sky Clearness
  ,                                       !- Rain Indicator
  ,                                       !- Snow Indicator
  21,                                     !- Day of Month
  7,                                      !- Month
  SummerDesignDay,                        !- Day Type
  ,                                       !- Daylight Saving Time Indicator
  Wetbulb,                                !- Humidity Condition Type
  ,                                       !- Humidity Condition Day Schedule Name
  26.5,                                   !- Wetbulb or DewPoint at Maximum Dry-Bulb {C}
  ,                                       !- Humidity Ratio at Maximum Dry-Bulb {kgWater/kgDryAir}
  ,                                       !- Enthalpy at Maximum Dry-Bulb {J/kg}
  ,                                       !- Dry-Bulb Temperature Range Modifier Type
  ,                                       !- Dry-Bulb Temperature Range Modifier Day Schedule Name
  ASHRAETau,                              !- Solar Model Indicator
  ,                                       !- Beam Solar Day Schedule Name
  ,                                       !- Diffuse Solar Day Schedule Name
  0.685,                                  !- ASHRAE Clear Sky Optical Depth for Beam Irradiance {dimensionless}
  1.554;                                  !- ASHRAE Clear Sky Optical Depth for Diffuse Irradiance {dimensionless}

OS:SizingPeriod:DesignDay,
  {5457a000-32e9-4a62-8fcb-5093e5a84a92}, !- Handle
  SHENZHEN Ann Clg .4% Condns WB=>MDB,    !- Name
  31,                                     !- Maximum Dry-Bulb Temperature {C}
  5.3,                                    !- Daily Dry-Bulb Temperature Range {deltaC}
  101109,                                 !- Barometric Pressure {Pa}
  3.4,                                    !- Wind Speed {m/s}
  220,                                    !- Wind Direction {deg}
  ,                                       !- Sky Clearness
  ,                                       !- Rain Indicator
  ,                                       !- Snow Indicator
  21,                                     !- Day of Month
  7,                                      !- Month
  SummerDesignDay,                        !- Day Type
  ,                                       !- Daylight Saving Time Indicator
  Wetbulb,                                !- Humidity Condition Type
  ,                                       !- Humidity Condition Day Schedule Name
  28.8,                                   !- Wetbulb or DewPoint at Maximum Dry-Bulb {C}
  ,                                       !- Humidity Ratio at Maximum Dry-Bulb {kgWater/kgDryAir}
  ,                                       !- Enthalpy at Maximum Dry-Bulb {J/kg}
  ,                                       !- Dry-Bulb Temperature Range Modifier Type
  ,                                       !- Dry-Bulb Temperature Range Modifier Day Schedule Name
  ASHRAETau,                              !- Solar Model Indicator
  ,                                       !- Beam Solar Day Schedule Name
  ,                                       !- Diffuse Solar Day Schedule Name
  0.685,                                  !- ASHRAE Clear Sky Optical Depth for Beam Irradiance {dimensionless}
  1.554;                                  !- ASHRAE Clear Sky Optical Depth for Diffuse Irradiance {dimensionless}

OS:SizingPeriod:DesignDay,
  {e67cb294-885c-4dcb-bf5f-c0aa4cbe064f}, !- Handle
  SHENZHEN Ann Clg .4% Condns DP=>MDB,    !- Name
  30.2,                                   !- Maximum Dry-Bulb Temperature {C}
  5.3,                                    !- Daily Dry-Bulb Temperature Range {deltaC}
  101109,                                 !- Barometric Pressure {Pa}
  3.4,                                    !- Wind Speed {m/s}
  220,                                    !- Wind Direction {deg}
  ,                                       !- Sky Clearness
  ,                                       !- Rain Indicator
  ,                                       !- Snow Indicator
  21,                                     !- Day of Month
  7,                                      !- Month
  SummerDesignDay,                        !- Day Type
  ,                                       !- Daylight Saving Time Indicator
  Dewpoint,                               !- Humidity Condition Type
  ,                                       !- Humidity Condition Day Schedule Name
  28.2,                                   !- Wetbulb or DewPoint at Maximum Dry-Bulb {C}
  ,                                       !- Humidity Ratio at Maximum Dry-Bulb {kgWater/kgDryAir}
  ,                                       !- Enthalpy at Maximum Dry-Bulb {J/kg}
  ,                                       !- Dry-Bulb Temperature Range Modifier Type
  ,                                       !- Dry-Bulb Temperature Range Modifier Day Schedule Name
  ASHRAETau,                              !- Solar Model Indicator
  ,                                       !- Beam Solar Day Schedule Name
  ,                                       !- Diffuse Solar Day Schedule Name
  0.685,                                  !- ASHRAE Clear Sky Optical Depth for Beam Irradiance {dimensionless}
  1.554;                                  !- ASHRAE Clear Sky Optical Depth for Diffuse Irradiance {dimensionless}

OS:SizingPeriod:DesignDay,
  {eed2b91c-200f-4b5d-82d0-0f26b44ffed2}, !- Handle
  SHENZHEN Ann Clg .4% Condns Enth=>MDB,  !- Name
  31.3,                                   !- Maximum Dry-Bulb Temperature {C}
  5.3,                                    !- Daily Dry-Bulb Temperature Range {deltaC}
  101109,                                 !- Barometric Pressure {Pa}
  3.4,                                    !- Wind Speed {m/s}
  220,                                    !- Wind Direction {deg}
  ,                                       !- Sky Clearness
  ,                                       !- Rain Indicator
  ,                                       !- Snow Indicator
  21,                                     !- Day of Month
  7,                                      !- Month
  SummerDesignDay,                        !- Day Type
  ,                                       !- Daylight Saving Time Indicator
  Enthalpy,                               !- Humidity Condition Type
  ,                                       !- Humidity Condition Day Schedule Name
  23,                                     !- Wetbulb or DewPoint at Maximum Dry-Bulb {C}
  ,                                       !- Humidity Ratio at Maximum Dry-Bulb {kgWater/kgDryAir}
  94500,                                  !- Enthalpy at Maximum Dry-Bulb {J/kg}
  ,                                       !- Dry-Bulb Temperature Range Modifier Type
  ,                                       !- Dry-Bulb Temperature Range Modifier Day Schedule Name
  ASHRAETau,                              !- Solar Model Indicator
  ,                                       !- Beam Solar Day Schedule Name
  ,                                       !- Diffuse Solar Day Schedule Name
  0.685,                                  !- ASHRAE Clear Sky Optical Depth for Beam Irradiance {dimensionless}
  1.554;                                  !- ASHRAE Clear Sky Optical Depth for Diffuse Irradiance {dimensionless}

OS:Site:WaterMainsTemperature,
  {60aa4ec3-7b7e-40df-b082-85cdca99ef22}, !- Handle
  CorrelationFromWeatherFile;             !- Calculation Method

OS:ClimateZones,
  {306c2dbd-2a1d-4e46-93f3-32ec9698e437}, !- Handle
  ASHRAE,                                 !- Climate Zone Institution Name 1
  ANSI/ASHRAE Standard 169,               !- Climate Zone Document Name 1
  2006,                                   !- Climate Zone Document Year 1
  2A;                                     !- Climate Zone Value 1

OS:OutputControl:ReportingTolerances,
  {848ed7d4-20ea-4d9c-ace3-cdb6206efe09}, !- Handle
  1.11,                                   !- Tolerance for Time Heating Setpoint Not Met {deltaC}
  1.11;                                   !- Tolerance for Time Cooling Setpoint Not Met {deltaC}

OS:Output:Variable,
  {6aa22aa6-150b-4e80-a499-978c8a684388}, !- Handle
  Output Variable 1,                      !- Name
  ,                                       !- Key Value
  AFN Zone Infiltration Sensible Heat Gain Energy, !- Variable Name
  Hourly;                                 !- Reporting Frequency

OS:Output:Variable,
  {0272f8e1-4e29-4bac-9ecf-a2087bfe4897}, !- Handle
  Output Variable 2,                      !- Name
  ,                                       !- Key Value
  AFN Zone Infiltration Sensible Heat Loss Energy, !- Variable Name
  Hourly;                                 !- Reporting Frequency

OS:Output:Variable,
  {25252229-5543-43c8-82cc-0613c913921e}, !- Handle
  Output Variable 3,                      !- Name
  ,                                       !- Key Value
  AFN Zone Ventilation Sensible Heat Gain Energy, !- Variable Name
  Hourly;                                 !- Reporting Frequency

OS:Output:Variable,
  {c023e139-2be6-4517-b2e5-fd074a4b9401}, !- Handle
  Output Variable 4,                      !- Name
  ,                                       !- Key Value
  AFN Zone Ventilation Sensible Heat Loss Energy, !- Variable Name
  Hourly;                                 !- Reporting Frequency

OS:Output:Variable,
  {f607199e-a480-4054-a18f-9022be1fd0a5}, !- Handle
  Output Variable 5,                      !- Name
  ,                                       !- Key Value
  Baseboard Electricity Energy,           !- Variable Name
  Hourly;                                 !- Reporting Frequency

OS:Output:Variable,
  {7b1fb2d8-4317-49ba-8b65-6af81330867e}, !- Handle
  Output Variable 6,                      !- Name
  ,                                       !- Key Value
  Boiler Electricity Energy,              !- Variable Name
  Hourly;                                 !- Reporting Frequency

OS:Output:Variable,
  {1459dbb3-16ae-472b-af3d-34eec460a665}, !- Handle
  Output Variable 7,                      !- Name
  ,                                       !- Key Value
  Boiler NaturalGas Energy,               !- Variable Name
  Hourly;                                 !- Reporting Frequency

OS:Output:Variable,
  {5c47a51e-006e-4466-ad64-8795d03c5dec}, !- Handle
  Output Variable 8,                      !- Name
  ,                                       !- Key Value
  Chiller Electricity Energy,             !- Variable Name
  Hourly;                                 !- Reporting Frequency

OS:Output:Variable,
  {b0d483cc-24d6-4db3-b62c-5054f603a2e4}, !- Handle
  Output Variable 9,                      !- Name
  ,                                       !- Key Value
  Chiller Heater System Cooling Electricity Energy, !- Variable Name
  Hourly;                                 !- Reporting Frequency

OS:Output:Variable,
  {f1200649-b560-411e-bb75-d76772343e93}, !- Handle
  Output Variable 10,                     !- Name
  ,                                       !- Key Value
  Chiller Heater System Heating Electricity Energy, !- Variable Name
  Hourly;                                 !- Reporting Frequency

OS:Output:Variable,
  {bef3d1c4-c5d3-4fe7-87be-78b968c12746}, !- Handle
  Output Variable 11,                     !- Name
  ,                                       !- Key Value
  Cooling Coil Electricity Energy,        !- Variable Name
  Hourly;                                 !- Reporting Frequency

OS:Output:Variable,
  {866e21ba-8e83-4c5e-983d-8f932bbfede2}, !- Handle
  Output Variable 12,                     !- Name
  ,                                       !- Key Value
  Cooling Coil Water Heating Electricity Energy, !- Variable Name
  Hourly;                                 !- Reporting Frequency

OS:Output:Variable,
  {ebc0cafa-dbea-4eff-ab78-8edf310364f2}, !- Handle
  Output Variable 13,                     !- Name
  ,                                       !- Key Value
  Cooling Tower Fan Electricity Energy,   !- Variable Name
  Hourly;                                 !- Reporting Frequency

OS:Output:Variable,
  {3d02d79b-d585-4af6-aefd-e16c5d602296}, !- Handle
  Output Variable 14,                     !- Name
  ,                                       !- Key Value
  District Cooling Water Energy,          !- Variable Name
  Hourly;                                 !- Reporting Frequency

OS:Output:Variable,
  {a1b09672-9ed1-4c65-b03f-2efceaee73fc}, !- Handle
  Output Variable 15,                     !- Name
  ,                                       !- Key Value
  District Heating Water Energy,          !- Variable Name
  Hourly;                                 !- Reporting Frequency

OS:Output:Variable,
  {f4882cb7-e1dd-4ce2-8642-2865583d0de2}, !- Handle
  Output Variable 16,                     !- Name
  ,                                       !- Key Value
  Evaporative Cooler Electricity Energy,  !- Variable Name
  Hourly;                                 !- Reporting Frequency

OS:Output:Variable,
  {2c5c9f3c-067b-46d0-b347-e63faaf57cc5}, !- Handle
  Output Variable 17,                     !- Name
  ,                                       !- Key Value
  Facility Net Purchased Electricity Energy, !- Variable Name
  Hourly;                                 !- Reporting Frequency

OS:Output:Variable,
  {ebf92e8e-729f-4892-8550-9eb7e5c9af49}, !- Handle
  Output Variable 18,                     !- Name
  ,                                       !- Key Value
  Facility Total Produced Electricity Energy, !- Variable Name
  Hourly;                                 !- Reporting Frequency

OS:Output:Variable,
  {efb9914a-466c-4f1a-9c1b-7f3f5e828b09}, !- Handle
  Output Variable 19,                     !- Name
  ,                                       !- Key Value
  Fan Electricity Energy,                 !- Variable Name
  Hourly;                                 !- Reporting Frequency

OS:Output:Variable,
  {df0f425a-2f9f-4835-8ffd-dde557d6855c}, !- Handle
  Output Variable 20,                     !- Name
  ,                                       !- Key Value
  Generator Produced DC Electricity Energy, !- Variable Name
  Hourly;                                 !- Reporting Frequency

OS:Output:Variable,
  {0771c7d2-38fa-47c0-8983-ba63ece1e18b}, !- Handle
  Output Variable 21,                     !- Name
  ,                                       !- Key Value
  Heating Coil Electricity Energy,        !- Variable Name
  Hourly;                                 !- Reporting Frequency

OS:Output:Variable,
  {a8c7c9ae-2048-4587-a4b4-d9350612abe4}, !- Handle
  Output Variable 22,                     !- Name
  ,                                       !- Key Value
  Heating Coil NaturalGas Energy,         !- Variable Name
  Hourly;                                 !- Reporting Frequency

OS:Output:Variable,
  {7c1b4ca7-4398-4a47-acfe-7cc69cac0b55}, !- Handle
  Output Variable 23,                     !- Name
  ,                                       !- Key Value
  Heating Coil Total Heating Energy,      !- Variable Name
  Hourly;                                 !- Reporting Frequency

OS:Output:Variable,
  {96766e1a-b6d7-4145-b47b-1d77205424bc}, !- Handle
  Output Variable 24,                     !- Name
  ,                                       !- Key Value
  Hot_Water_Loop_Central_Air_Source_Heat_Pump Electricity Consumption, !- Variable Name
  Hourly;                                 !- Reporting Frequency

OS:Output:Variable,
  {9a864472-4908-4103-9a16-f2f604a2aac4}, !- Handle
  Output Variable 25,                     !- Name
  ,                                       !- Key Value
  Humidifier Electricity Energy,          !- Variable Name
  Hourly;                                 !- Reporting Frequency

OS:Output:Variable,
  {ae6e7a4f-d13f-4307-b93d-31e02b311fe7}, !- Handle
  Output Variable 26,                     !- Name
  ,                                       !- Key Value
  Pump Electricity Energy,                !- Variable Name
  Hourly;                                 !- Reporting Frequency

OS:Output:Variable,
  {072e9db1-5a75-46a9-ba74-cb98d02ce9ab}, !- Handle
  Output Variable 27,                     !- Name
  ,                                       !- Key Value
  VRF Heat Pump Cooling Electricity Energy, !- Variable Name
  Hourly;                                 !- Reporting Frequency

OS:Output:Variable,
  {75895800-73bb-4efc-a64d-aa0997e4ff11}, !- Handle
  Output Variable 28,                     !- Name
  ,                                       !- Key Value
  VRF Heat Pump Crankcase Heater Electricity Energy, !- Variable Name
  Hourly;                                 !- Reporting Frequency

OS:Output:Variable,
  {83653ce3-b21a-4ed8-a8c5-3c657a5a6ed8}, !- Handle
  Output Variable 29,                     !- Name
  ,                                       !- Key Value
  VRF Heat Pump Defrost Electricity Energy, !- Variable Name
  Hourly;                                 !- Reporting Frequency

OS:Output:Variable,
  {c6cdf23e-2399-435e-83f0-fe1f004417e9}, !- Handle
  Output Variable 30,                     !- Name
  ,                                       !- Key Value
  VRF Heat Pump Heating Electricity Energy, !- Variable Name
  Hourly;                                 !- Reporting Frequency

OS:Output:Variable,
  {4d296daf-586f-4dae-a962-ba0a876f0cd4}, !- Handle
  Output Variable 31,                     !- Name
  ,                                       !- Key Value
  Water Heater Electricity Energy,        !- Variable Name
  Hourly;                                 !- Reporting Frequency

OS:Output:Variable,
  {2534ddb0-ba75-4cb1-ab05-41112ece9410}, !- Handle
  Output Variable 32,                     !- Name
  ,                                       !- Key Value
  Water Heater NaturalGas Energy,         !- Variable Name
  Hourly;                                 !- Reporting Frequency

OS:Output:Variable,
  {4180e094-63d6-40b8-92c8-b413aa46ccc6}, !- Handle
  Output Variable 33,                     !- Name
  ,                                       !- Key Value
  Water Use Equipment Heating Energy,     !- Variable Name
  Hourly;                                 !- Reporting Frequency

OS:Output:Variable,
  {13267e11-f1b3-4624-a65e-15b3d83432cb}, !- Handle
  Output Variable 34,                     !- Name
  ,                                       !- Key Value
  Zone Air Relative Humidity,             !- Variable Name
  Hourly;                                 !- Reporting Frequency

OS:Output:Variable,
  {286bdf55-f5ca-4734-a4a4-c788f8d142d0}, !- Handle